C18H17N5S
  MOLSOFT 03092310482D

 24 27  0  0  1  0  0  0  0  0999 V2000
    0.0000   -0.0000    0.0000 S   0  0  0
    1.4560   -0.2959    0.0000 C   0  0  0
   -1.0180   -1.1009    0.0000 C   0  0  2
    2.5568    0.7221    0.0000 N   0  0  0
    2.0597   -1.6572    0.0000 N   0  0  0
   -2.4976   -0.7812    0.0000 C   0  0  0
   -0.5682   -2.5213    0.0000 C   0  0  0
    3.8471   -0.0237    0.0000 N   0  0  0
    3.5393   -1.4915    0.0000 C   0  0  0
    1.3021   -2.9474    0.0000 C   0  0  0
   -3.5156   -1.8821    0.0000 C   0  0  0
   -2.9711    0.6629    0.0000 C   0  0  0
   -4.9953   -1.5625    0.0000 C   0  0  0
   -4.4508    0.9825    0.0000 C   0  0  0
   -6.0132   -2.6633    0.0000 C   0  0  0
   -5.4687   -0.1184    0.0000 C   0  0  0
   -7.5166   -2.4976    0.0000 N   0  0  0
   -5.7173   -4.1193    0.0000 C   0  0  0
   -8.1439   -3.8589    0.0000 N   0  0  0
   -7.0312   -4.8651    0.0000 C   0  0  0
   -4.4271   -4.8651    0.0000 C   0  0  0
   -7.0431   -6.3565    0.0000 C   0  0  0
   -4.4389   -6.3565    0.0000 C   0  0  0
   -5.7528   -7.1023    0.0000 C   0  0  0
  1  2  1
  3  1  1  1  0
  2  4  2
  2  5  1
  3  6  1
  3  7  1
  4  8  1
  5  9  1
  5 10  1
  6 11  2
  6 12  1
 11 13  1
 12 14  2
 13 15  1
 13 16  2
 15 17  2
 15 18  1
 17 19  1
 18 20  2
 18 21  1
 20 22  1
 21 23  2
 22 24  2
  8  9  2
 14 16  1
 19 20  1
 23 24  1
M  END
> <COMPOUND_NAMES>
Compound 107 (S) (Page No: 79, Table No: 2)

> <Reference>
WO 2021/021761 A1

> <IC50_range_nM>
101-1000

> <smiles>
C[C@@H](c1cccc(c1)c1c2ccccc2[nH]n1)Sc1nncn1C

$$$$
C18H17N5S
  MOLSOFT 03092310482D

 24 27  0  0  1  0  0  0  0  0999 V2000
    0.0000   -0.0000    0.0000 S   0  0  0
    1.4560   -0.2959    0.0000 C   0  0  0
   -1.0180   -1.1009    0.0000 C   0  0  1
    2.5568    0.7221    0.0000 N   0  0  0
    2.0597   -1.6572    0.0000 N   0  0  0
   -2.4976   -0.7812    0.0000 C   0  0  0
   -0.5682   -2.5213    0.0000 C   0  0  0
    3.8471   -0.0237    0.0000 N   0  0  0
    3.5393   -1.4915    0.0000 C   0  0  0
    1.3021   -2.9474    0.0000 C   0  0  0
   -3.5156   -1.8821    0.0000 C   0  0  0
   -2.9711    0.6629    0.0000 C   0  0  0
   -4.9953   -1.5625    0.0000 C   0  0  0
   -4.4508    0.9825    0.0000 C   0  0  0
   -6.0132   -2.6633    0.0000 C   0  0  0
   -5.4687   -0.1184    0.0000 C   0  0  0
   -7.5166   -2.4976    0.0000 N   0  0  0
   -5.7173   -4.1193    0.0000 C   0  0  0
   -8.1439   -3.8589    0.0000 N   0  0  0
   -7.0312   -4.8651    0.0000 C   0  0  0
   -4.4271   -4.8651    0.0000 C   0  0  0
   -7.0431   -6.3565    0.0000 C   0  0  0
   -4.4389   -6.3565    0.0000 C   0  0  0
   -5.7528   -7.1023    0.0000 C   0  0  0
  1  2  1
  2  4  2
  2  5  1
  3  6  1
  3  7  1  6  0
  4  8  1
  5  9  1
  5 10  1
  6 11  2
  6 12  1
 11 13  1
 12 14  2
 13 15  1
 13 16  2
 15 17  2
 15 18  1
 17 19  1
 18 20  2
 18 21  1
 20 22  1
 21 23  2
 22 24  2
  8  9  2
 14 16  1
 19 20  1
 23 24  1
  3  1  1
M  END
> <COMPOUND_NAMES>
Compound 108 (R) (Page No: 79, Table No: 2)

> <Reference>
WO 2021/021761 A1

> <IC50_range_nM>
1001-5000

> <smiles>
C[C@H](c1cccc(c1)c1c2ccccc2[nH]n1)Sc1nncn1C

$$$$
C20H19N5S
  MOLSOFT 03092310482D

 26 29  0  0  1  0  0  0  0  0999 V2000
    0.0000   -0.0000    0.0000 S   0  0  0
    0.8781    1.2340    0.0000 C   0  0  0
    0.6051   -1.3645    0.0000 C   0  0  2
    0.4034    2.6816    0.0000 N   0  0  0
    2.3731    1.2459    0.0000 N   0  0  0
   -0.2966   -2.5748    0.0000 C   0  0  0
    2.0883   -1.5069    0.0000 C   0  0  0
    1.6137    3.5834    0.0000 N   0  0  0
    2.8240    2.6935    0.0000 C   0  0  0
    3.2512    0.0356    0.0000 C   0  0  0
    0.3085   -3.9394    0.0000 C   0  0  0
   -1.8036   -2.4087    0.0000 C   0  0  0
   -0.5933   -5.1496    0.0000 C   0  0  0
   -2.7053   -3.6190    0.0000 C   0  0  0
    0.0119   -6.5142    0.0000 C   0  0  0
   -2.1002   -4.9835    0.0000 C   0  0  0
   -0.7475   -7.8075    0.0000 N   0  0  0
    1.4713   -6.8108    0.0000 C   0  0  0
    0.2492   -8.9110    0.0000 N   0  0  0
    1.6137   -8.2940    0.0000 C   0  0  0
    2.9071   -9.0415    0.0000 C   0  0  0
    4.2004   -8.2822    0.0000 C   0  0  0
    2.8952  -10.5366    0.0000 C   0  0  0
    5.4937   -9.0297    0.0000 C   0  0  0
    4.1885  -11.2723    0.0000 C   0  0  0
    5.4819  -10.5247    0.0000 C   0  0  0
  1  2  1
  3  1  1  1  0
  2  4  2
  2  5  1
  3  6  1
  3  7  1
  4  8  1
  5  9  1
  5 10  1
  6 11  2
  6 12  1
 11 13  1
 12 14  2
 13 15  1
 13 16  2
 15 17  1
 15 18  2
 17 19  1
 18 20  1
 20 21  1
 21 22  2
 21 23  1
 22 24  1
 23 25  2
 24 26  2
  8  9  2
 14 16  1
 19 20  2
 25 26  1
M  END
> <COMPOUND_NAMES>
Compound 102 (S) (Page No: 79, Table No: 2)

> <Reference>
WO 2021/021761 A1

> <IC50_range_nM>
101-1000

> <smiles>
C[C@@H](c1cccc(c1)c1cc(c2ccccc2)n[nH]1)Sc1nncn1C

$$$$
C20H19N5S
  MOLSOFT 03092310482D

 26 29  0  0  1  0  0  0  0  0999 V2000
    0.0000   -0.0000    0.0000 S   0  0  0
    0.8781    1.2340    0.0000 C   0  0  0
    0.6051   -1.3645    0.0000 C   0  0  1
    0.4034    2.6816    0.0000 N   0  0  0
    2.3731    1.2459    0.0000 N   0  0  0
   -0.2966   -2.5748    0.0000 C   0  0  0
    2.0883   -1.5069    0.0000 C   0  0  0
    1.6137    3.5834    0.0000 N   0  0  0
    2.8240    2.6935    0.0000 C   0  0  0
    3.2512    0.0356    0.0000 C   0  0  0
    0.3085   -3.9394    0.0000 C   0  0  0
   -1.8036   -2.4087    0.0000 C   0  0  0
   -0.5933   -5.1496    0.0000 C   0  0  0
   -2.7053   -3.6190    0.0000 C   0  0  0
    0.0119   -6.5142    0.0000 C   0  0  0
   -2.1002   -4.9835    0.0000 C   0  0  0
   -0.7475   -7.8075    0.0000 N   0  0  0
    1.4713   -6.8108    0.0000 C   0  0  0
    0.2492   -8.9110    0.0000 N   0  0  0
    1.6137   -8.2940    0.0000 C   0  0  0
    2.9071   -9.0415    0.0000 C   0  0  0
    4.2004   -8.2822    0.0000 C   0  0  0
    2.8952  -10.5366    0.0000 C   0  0  0
    5.4937   -9.0297    0.0000 C   0  0  0
    4.1885  -11.2723    0.0000 C   0  0  0
    5.4819  -10.5247    0.0000 C   0  0  0
  1  2  1
  3  1  1  6  0
  2  4  2
  2  5  1
  3  6  1
  3  7  1
  4  8  1
  5  9  1
  5 10  1
  6 11  2
  6 12  1
 11 13  1
 12 14  2
 13 15  1
 13 16  2
 15 17  1
 15 18  2
 17 19  1
 18 20  1
 20 21  1
 21 22  2
 21 23  1
 22 24  1
 23 25  2
 24 26  2
  8  9  2
 14 16  1
 19 20  2
 25 26  1
M  END
> <COMPOUND_NAMES>
Compound 103 (R) (Page No: 79, Table No: 1)

> <Reference>
WO 2021/021761 A1

> <IC50_range_nM>
>5000

> <smiles>
C[C@H](c1cccc(c1)c1cc(c2ccccc2)n[nH]1)Sc1nncn1C

$$$$
C21H21N5OS
  MOLSOFT 03092310482D

 28 31  0  0  1  0  0  0  0  0999 V2000
    0.0000   -0.0000    0.0000 S   0  0  0
   -0.3274   -1.4500    0.0000 C   0  0  0
    1.4149    0.4677    0.0000 C   0  0  2
    0.6548   -2.5491    0.0000 N   0  0  0
   -1.7072   -2.0463    0.0000 N   0  0  0
    1.7189    1.9411    0.0000 C   0  0  0
    2.5141   -0.5145    0.0000 C   0  0  0
   -0.1052   -3.8354    0.0000 N   0  0  0
   -1.5669   -3.5197    0.0000 C   0  0  0
   -3.0169   -1.2863    0.0000 C   0  0  0
    0.5964    2.9584    0.0000 C   0  0  0
    3.1221    2.4088    0.0000 C   0  0  0
    0.9004    4.4318    0.0000 C   0  0  0
    3.4261    3.8822    0.0000 C   0  0  0
   -0.2222    5.4491    0.0000 C   0  0  0
    2.3036    4.9112    0.0000 C   0  0  0
   -0.0819    6.9458    0.0000 N   0  0  0
   -1.6955    5.1451    0.0000 C   0  0  0
   -1.4617    7.5656    0.0000 N   0  0  0
   -2.4556    6.4547    0.0000 C   0  0  0
   -3.9523    6.6184    0.0000 C   0  0  0
   -4.5721    7.9982    0.0000 C   0  0  0
   -4.8410    5.4257    0.0000 C   0  0  0
   -6.0688    8.1619    0.0000 C   0  0  0
   -6.3378    5.5894    0.0000 C   0  0  0
   -6.6886    9.5417    0.0000 O   0  0  0
   -6.9575    6.9692    0.0000 C   0  0  0
   -8.1853    9.7054    0.0000 C   0  0  0
  1  2  1
  3  1  1  6  0
  2  4  2
  2  5  1
  3  6  1
  3  7  1
  4  8  1
  5  9  1
  5 10  1
  6 11  2
  6 12  1
 11 13  1
 12 14  2
 13 15  1
 13 16  2
 15 17  1
 15 18  2
 17 19  1
 18 20  1
 20 21  1
 21 22  2
 21 23  1
 22 24  1
 23 25  2
 24 26  1
 24 27  2
 26 28  1
  8  9  2
 14 16  1
 19 20  2
 25 27  1
M  END
> <COMPOUND_NAMES>
Compound 104 (Page No: 79, Table No: 2)

> <Reference>
WO 2021/021761 A1

> <IC50_range_nM>
1001-5000

> <smiles>
C[C@@H](c1cccc(c1)c1cc(c2cccc(c2)OC)n[nH]1)Sc1nncn1C

$$$$
C19H18N6S
  MOLSOFT 03092310482D

 26 29  0  0  1  0  0  0  0  0999 V2000
    0.0000   -0.0000    0.0000 S   0  0  0
   -0.9004    1.2321    0.0000 C   0  0  0
    1.4809    0.1659    0.0000 C   0  0  2
   -2.4168    1.2439    0.0000 N   0  0  0
   -0.4502    2.6774    0.0000 N   0  0  0
    2.3575   -1.0425    0.0000 C   0  0  0
    2.0851    1.5519    0.0000 C   0  0  0
   -2.8906    2.6892    0.0000 N   0  0  0
   -1.6823    3.5778    0.0000 C   0  0  0
    0.9714    3.1513    0.0000 C   0  0  0
    3.8384   -0.8767    0.0000 C   0  0  0
    1.7296   -2.4049    0.0000 C   0  0  0
    4.7151   -2.0851    0.0000 C   0  0  0
    2.6063   -3.6133    0.0000 C   0  0  0
    6.1959   -1.9192    0.0000 N   0  0  0
    4.0872   -3.4475    0.0000 C   0  0  0
    7.1911   -3.0210    0.0000 N   0  0  0
    6.9304   -0.6042    0.0000 N   0  0  0
    8.5535   -2.3931    0.0000 C   0  0  0
    8.3876   -0.9004    0.0000 C   0  0  0
    9.8448   -3.1394    0.0000 C   0  0  0
   11.1361   -2.3694    0.0000 C   0  0  0
    9.8329   -4.6321    0.0000 C   0  0  0
   12.4274   -3.1157    0.0000 C   0  0  0
   11.1243   -5.3785    0.0000 C   0  0  0
   12.4156   -4.6084    0.0000 C   0  0  0
  1  2  1
  3  1  1  1  0
  2  4  2
  2  5  1
  3  6  1
  3  7  1
  4  8  1
  5  9  1
  5 10  1
  6 11  2
  6 12  1
 11 13  1
 12 14  2
 13 15  1
 13 16  2
 15 17  1
 15 18  1
 17 19  2
 18 20  2
 19 21  1
 21 22  2
 21 23  1
 22 24  1
 23 25  2
 24 26  2
  8  9  2
 14 16  1
 19 20  1
 25 26  1
M  END
> <COMPOUND_NAMES>
Compound 99 (S) (Page No: 79, Table No: 2)

> <Reference>
WO 2021/021761 A1

> <IC50_range_nM>
101-1000

> <smiles>
C[C@@H](c1cccc(c1)n1ncc(c2ccccc2)n1)Sc1nncn1C

$$$$
C19H18N6S
  MOLSOFT 03092310482D

 26 29  0  0  1  0  0  0  0  0999 V2000
    0.0000   -0.0000    0.0000 S   0  0  0
   -0.9004    1.2321    0.0000 C   0  0  0
    1.4809    0.1659    0.0000 C   0  0  1
   -2.4168    1.2439    0.0000 N   0  0  0
   -0.4502    2.6774    0.0000 N   0  0  0
    2.3575   -1.0425    0.0000 C   0  0  0
    2.0851    1.5519    0.0000 C   0  0  0
   -2.8906    2.6892    0.0000 N   0  0  0
   -1.6823    3.5778    0.0000 C   0  0  0
    0.9714    3.1513    0.0000 C   0  0  0
    3.8384   -0.8767    0.0000 C   0  0  0
    1.7296   -2.4049    0.0000 C   0  0  0
    4.7151   -2.0851    0.0000 C   0  0  0
    2.6063   -3.6133    0.0000 C   0  0  0
    6.1959   -1.9192    0.0000 N   0  0  0
    4.0872   -3.4475    0.0000 C   0  0  0
    7.1911   -3.0210    0.0000 N   0  0  0
    6.9304   -0.6042    0.0000 N   0  0  0
    8.5535   -2.3931    0.0000 C   0  0  0
    8.3876   -0.9004    0.0000 C   0  0  0
    9.8448   -3.1394    0.0000 C   0  0  0
   11.1361   -2.3694    0.0000 C   0  0  0
    9.8329   -4.6321    0.0000 C   0  0  0
   12.4274   -3.1157    0.0000 C   0  0  0
   11.1243   -5.3785    0.0000 C   0  0  0
   12.4156   -4.6084    0.0000 C   0  0  0
  1  2  1
  3  1  1  6  0
  2  4  2
  2  5  1
  3  6  1
  3  7  1
  4  8  1
  5  9  1
  5 10  1
  6 11  2
  6 12  1
 11 13  1
 12 14  2
 13 15  1
 13 16  2
 15 17  1
 15 18  1
 17 19  2
 18 20  2
 19 21  1
 21 22  2
 21 23  1
 22 24  1
 23 25  2
 24 26  2
  8  9  2
 14 16  1
 19 20  1
 25 26  1
M  END
> <COMPOUND_NAMES>
Compound 100 (R) (Page No: 79, Table No: 2)

> <Reference>
WO 2021/021761 A1

> <IC50_range_nM>
>5000

> <smiles>
C[C@H](c1cccc(c1)n1ncc(c2ccccc2)n1)Sc1nncn1C

$$$$
C20H20N6OS
  MOLSOFT 03092310482D

 28 31  0  0  1  0  0  0  0  0999 V2000
    0.0000   -0.0000    0.0000 S   0  0  0
   -0.9010    1.2330    0.0000 C   0  0  0
    1.4819    0.1660    0.0000 C   0  0  2
   -2.4185    1.2448    0.0000 N   0  0  0
   -0.4505    2.6793    0.0000 N   0  0  0
    2.3592   -1.0433    0.0000 C   0  0  0
    2.0866    1.5531    0.0000 C   0  0  0
   -2.8927    2.6912    0.0000 N   0  0  0
   -1.6835    3.5804    0.0000 C   0  0  0
    0.9721    3.1536    0.0000 C   0  0  0
    3.8412   -0.8773    0.0000 C   0  0  0
    1.7309   -2.4067    0.0000 C   0  0  0
    4.7185   -2.0866    0.0000 C   0  0  0
    2.6082   -3.6159    0.0000 C   0  0  0
    6.2004   -1.9206    0.0000 N   0  0  0
    4.0901   -3.4499    0.0000 C   0  0  0
    7.1963   -3.0231    0.0000 N   0  0  0
    6.9355   -0.6046    0.0000 N   0  0  0
    8.5597   -2.3948    0.0000 C   0  0  0
    8.3937   -0.9010    0.0000 C   0  0  0
    9.8519   -3.1417    0.0000 C   0  0  0
   11.1441   -2.3711    0.0000 C   0  0  0
    9.8400   -4.6355    0.0000 C   0  0  0
   12.4364   -3.1180    0.0000 C   0  0  0
   11.1323   -5.3705    0.0000 C   0  0  0
   12.4245   -4.6118    0.0000 C   0  0  0
   13.7168   -5.3468    0.0000 C   0  0  0
   13.7049   -6.8406    0.0000 O   0  0  0
  1  2  1
  3  1  1  1  0
  2  4  2
  2  5  1
  3  6  1
  3  7  1
  4  8  1
  5  9  1
  5 10  1
  6 11  2
  6 12  1
 11 13  1
 12 14  2
 13 15  1
 13 16  2
 15 17  1
 15 18  1
 17 19  2
 18 20  2
 19 21  1
 21 22  2
 21 23  1
 22 24  1
 23 25  2
 24 26  2
 26 27  1
 27 28  1
  8  9  2
 14 16  1
 19 20  1
 25 26  1
M  END
> <COMPOUND_NAMES>
Compound 84 (S) (Page No: 78, Table No: 2)

> <Reference>
WO 2021/021761 A1

> <IC50_range_nM>
1001-5000

> <smiles>
C[C@@H](c1cccc(c1)n1ncc(c2ccc(CO)cc2)n1)Sc1nncn1C

$$$$
C19H17ClN6S
  MOLSOFT 03092310482D

 27 30  0  0  1  0  0  0  0  0999 V2000
    0.0000   -0.0000    0.0000 Cl  0  0  0
   -0.0117    1.5024    0.0000 C   0  0  0
   -1.3146    2.2536    0.0000 C   0  0  0
    1.2676    2.2536    0.0000 C   0  0  0
   -1.3263    3.7560    0.0000 C   0  0  0
    1.2559    3.7560    0.0000 C   0  0  0
   -2.6292    4.5189    0.0000 C   0  0  0
   -0.0469    4.5189    0.0000 C   0  0  0
   -4.0025    3.9203    0.0000 N   0  0  0
   -2.7935    6.0096    0.0000 C   0  0  0
   -5.0119    5.0354    0.0000 N   0  0  0
   -4.2607    6.3265    0.0000 N   0  0  0
   -6.5026    4.8945    0.0000 C   0  0  0
   -7.3946    6.1152    0.0000 C   0  0  0
   -7.1247    3.5447    0.0000 C   0  0  0
   -8.8853    5.9744    0.0000 C   0  0  0
   -8.6153    3.4039    0.0000 C   0  0  0
   -9.5074    4.6246    0.0000 C   0  0  0
   -9.7773    7.1951    0.0000 C   0  0  1
  -11.2680    7.0542    0.0000 S   0  0  0
   -9.1787    8.5684    0.0000 C   0  0  0
  -12.1600    8.2749    0.0000 C   0  0  0
  -13.6624    8.2867    0.0000 N   0  0  0
  -11.7140    9.7069    0.0000 N   0  0  0
  -14.1319    9.7186    0.0000 N   0  0  0
  -12.9347   10.5989    0.0000 C   0  0  0
  -10.3055   10.1764    0.0000 C   0  0  0
  1  2  1
  2  3  2
  2  4  1
  3  5  1
  4  6  2
  5  7  1
  5  8  2
  7  9  2
  7 10  1
  9 11  1
 10 12  2
 11 13  1
 13 14  2
 13 15  1
 14 16  1
 15 17  2
 16 18  2
 19 16  1
 19 20  1  1  0
 19 21  1
 20 22  1
 22 23  2
 22 24  1
 23 25  1
 24 26  1
 24 27  1
  6  8  1
 11 12  1
 17 18  1
 25 26  2
M  END
> <COMPOUND_NAMES>
Compound 78 (S) (Page No: 78, Table No: 2)

> <Reference>
WO 2021/021761 A1

> <IC50_range_nM>
1001-5000

> <smiles>
C[C@@H](c1cccc(c1)n1ncc(c2cccc(c2)[Cl])n1)Sc1nncn1C

$$$$
C19H17ClN6S
  MOLSOFT 03092310482D

 27 30  0  0  1  0  0  0  0  0999 V2000
    0.0000   -0.0000    0.0000 Cl  0  0  0
   -1.3018    0.7506    0.0000 C   0  0  0
   -1.3135    2.2518    0.0000 C   0  0  0
   -2.6036    0.0117    0.0000 C   0  0  0
   -2.6154    3.0141    0.0000 C   0  0  0
   -3.9054    0.7623    0.0000 C   0  0  0
   -3.9172    2.2752    0.0000 C   0  0  0
   -5.2190    3.0376    0.0000 C   0  0  0
   -6.5912    2.4394    0.0000 N   0  0  0
   -5.3832    4.5270    0.0000 C   0  0  0
   -7.5998    3.5536    0.0000 N   0  0  0
   -6.8492    4.8437    0.0000 N   0  0  0
   -9.0892    3.4129    0.0000 C   0  0  0
   -9.9806    4.6326    0.0000 C   0  0  0
   -9.7108    2.0641    0.0000 C   0  0  0
  -11.4700    4.4918    0.0000 C   0  0  0
  -11.2003    1.9234    0.0000 C   0  0  0
  -12.0916    3.1431    0.0000 C   0  0  0
  -12.3614    5.7116    0.0000 C   0  0  1
  -13.8508    5.5708    0.0000 S   0  0  0
  -11.7632    7.0837    0.0000 C   0  0  0
  -14.7422    6.7905    0.0000 C   0  0  0
  -16.2434    6.8023    0.0000 N   0  0  0
  -14.2965    8.2214    0.0000 N   0  0  0
  -16.7125    8.2331    0.0000 N   0  0  0
  -15.5162    9.1127    0.0000 C   0  0  0
  -12.8891    8.6905    0.0000 C   0  0  0
  1  2  1
  2  3  2
  2  4  1
  3  5  1
  4  6  2
  5  7  2
  7  8  1
  8  9  2
  8 10  1
  9 11  1
 10 12  2
 11 13  1
 13 14  2
 13 15  1
 14 16  1
 15 17  2
 16 18  2
 19 16  1
 19 20  1  1  0
 19 21  1
 20 22  1
 22 23  2
 22 24  1
 23 25  1
 24 26  1
 24 27  1
  6  7  1
 11 12  1
 17 18  1
 25 26  2
M  END
> <COMPOUND_NAMES>
Compound 72 (S) (Page No: 78, Table No: 2)

> <Reference>
WO 2021/021761 A1

> <IC50_range_nM>
1001-5000

> <smiles>
C[C@@H](c1cccc(c1)n1ncc(c2ccc(cc2)[Cl])n1)Sc1nncn1C

$$$$
C20H17N7S
  MOLSOFT 03092310482D

 28 31  0  0  1  0  0  0  0  0999 V2000
    0.0000   -0.0000    0.0000 S   0  0  0
    0.8703   -1.1997    0.0000 C   0  0  0
   -1.4937   -0.1411    0.0000 C   0  0  2
    2.3523   -1.1879    0.0000 N   0  0  0
    0.3999   -2.6110    0.0000 N   0  0  0
   -2.3876    1.0820    0.0000 C   0  0  0
   -2.1170   -1.4937    0.0000 C   0  0  0
    2.7992   -2.5993    0.0000 N   0  0  0
    1.5995   -3.4814    0.0000 C   0  0  0
   -1.0350   -3.0580    0.0000 C   0  0  0
   -3.8813    0.9409    0.0000 C   0  0  0
   -1.7877    2.4581    0.0000 C   0  0  0
   -4.7751    2.1641    0.0000 C   0  0  0
   -2.6816    3.6813    0.0000 C   0  0  0
   -6.2688    2.0230    0.0000 N   0  0  0
   -4.1753    3.5402    0.0000 C   0  0  0
   -7.2803    3.1403    0.0000 N   0  0  0
   -7.0215    0.7410    0.0000 N   0  0  0
   -8.6564    2.5405    0.0000 C   0  0  0
   -8.4917    1.0585    0.0000 C   0  0  0
   -9.9619    3.2932    0.0000 C   0  0  0
  -11.2674    2.5522    0.0000 C   0  0  0
   -9.9736    4.7986    0.0000 C   0  0  0
  -12.5729    3.3049    0.0000 C   0  0  0
  -11.2792    5.5631    0.0000 C   0  0  0
  -12.5847    4.8104    0.0000 C   0  0  0
  -13.8902    5.5749    0.0000 C   0  0  0
  -15.1957    6.3276    0.0000 N   0  0  0
  1  2  1
  3  1  1  1  0
  2  4  2
  2  5  1
  3  6  1
  3  7  1
  4  8  1
  5  9  1
  5 10  1
  6 11  2
  6 12  1
 11 13  1
 12 14  2
 13 15  1
 13 16  2
 15 17  1
 15 18  1
 17 19  2
 18 20  2
 19 21  1
 21 22  2
 21 23  1
 22 24  1
 23 25  2
 24 26  2
 26 27  1
 27 28  3
  8  9  2
 14 16  1
 19 20  1
 25 26  1
M  END
> <COMPOUND_NAMES>
Compound 88 (S) (Page No: 58, Table No: 2)

> <Reference>
WO 2021/021761 A1

> <IC50_range_nM>
101-1000

> <smiles>
C[C@@H](c1cccc(c1)n1ncc(c2ccc(C#N)cc2)n1)Sc1nncn1C

$$$$
C20H17N7S
  MOLSOFT 03092310482D

 28 31  0  0  1  0  0  0  0  0999 V2000
    0.0000   -0.0000    0.0000 S   0  0  0
   -0.6235   -1.3529    0.0000 C   0  0  0
   -0.8941    1.2235    0.0000 C   0  0  2
    0.1059   -2.6353    0.0000 N   0  0  0
   -2.0941   -1.6471    0.0000 N   0  0  0
   -0.2941    2.6000    0.0000 C   0  0  0
   -2.3882    1.0824    0.0000 C   0  0  0
   -0.9059   -3.7294    0.0000 N   0  0  0
   -2.2588   -3.1177    0.0000 C   0  0  0
   -3.2118   -0.6353    0.0000 C   0  0  0
   -1.1882    3.8235    0.0000 C   0  0  0
    1.1765    2.7647    0.0000 C   0  0  0
   -0.5882    5.2000    0.0000 C   0  0  0
    1.7765    4.1412    0.0000 C   0  0  0
   -1.4824    6.4235    0.0000 N   0  0  0
    0.8824    5.3647    0.0000 C   0  0  0
   -1.0353    7.8588    0.0000 N   0  0  0
   -2.9882    6.4353    0.0000 N   0  0  0
   -2.2588    8.7530    0.0000 C   0  0  0
   -3.4588    7.8706    0.0000 C   0  0  0
   -2.2706   10.2589    0.0000 C   0  0  0
   -3.5765   11.0118    0.0000 C   0  0  0
   -0.9882   11.0118    0.0000 C   0  0  0
   -3.5882   12.5177    0.0000 C   0  0  0
   -1.0000   12.5177    0.0000 C   0  0  0
   -4.8941   13.2706    0.0000 C   0  0  0
   -2.3059   13.2706    0.0000 C   0  0  0
   -6.2000   14.0236    0.0000 N   0  0  0
  1  2  1
  3  1  1  1  0
  2  4  2
  2  5  1
  3  6  1
  3  7  1
  4  8  1
  5  9  1
  5 10  1
  6 11  2
  6 12  1
 11 13  1
 12 14  2
 13 15  1
 13 16  2
 15 17  1
 15 18  1
 17 19  2
 18 20  2
 19 21  1
 21 22  2
 21 23  1
 22 24  1
 23 25  2
 24 26  1
 24 27  2
 26 28  3
  8  9  2
 14 16  1
 19 20  1
 25 27  1
M  END
> <COMPOUND_NAMES>
Compound 97 (S) (Page No: 79, Table No: 2)

> <Reference>
WO 2021/021761 A1

> <IC50_range_nM>
1001-5000

> <smiles>
C[C@@H](c1cccc(c1)n1ncc(c2cccc(C#N)c2)n1)Sc1nncn1C

$$$$
C20H20N6OS
  MOLSOFT 03092310482D

 28 31  0  0  1  0  0  0  0  0999 V2000
    0.0000   -0.0000    0.0000 S   0  0  0
   -0.3275   -1.4503    0.0000 C   0  0  0
    1.4153    0.4679    0.0000 C   0  0  2
    0.6550   -2.5498    0.0000 N   0  0  0
   -1.7077   -2.0469    0.0000 N   0  0  0
    1.7194    1.9416    0.0000 C   0  0  0
    2.5147   -0.5146    0.0000 C   0  0  0
   -0.1053   -3.8364    0.0000 N   0  0  0
   -1.5673   -3.5206    0.0000 C   0  0  0
   -3.0177   -1.2866    0.0000 C   0  0  0
    0.5965    2.9592    0.0000 C   0  0  0
    3.1229    2.4094    0.0000 C   0  0  0
    0.9006    4.4329    0.0000 C   0  0  0
    3.4270    3.8832    0.0000 C   0  0  0
   -0.2222    5.4505    0.0000 N   0  0  0
    2.3042    4.9125    0.0000 C   0  0  0
   -0.0819    6.9476    0.0000 N   0  0  0
   -1.6960    5.1464    0.0000 N   0  0  0
   -1.4620    7.5675    0.0000 C   0  0  0
   -2.4562    6.4564    0.0000 C   0  0  0
   -1.7895    9.0413    0.0000 C   0  0  0
   -0.6901   10.0472    0.0000 C   0  0  0
   -3.2165    9.5091    0.0000 C   0  0  0
   -1.0176   11.5209    0.0000 C   0  0  0
   -3.5440   10.9829    0.0000 C   0  0  0
   -2.4562   11.9888    0.0000 C   0  0  0
   -2.7837   13.4625    0.0000 O   0  0  0
   -4.2107   13.9304    0.0000 C   0  0  0
  1  2  1
  3  1  1  6  0
  2  4  2
  2  5  1
  3  6  1
  3  7  1
  4  8  1
  5  9  1
  5 10  1
  6 11  2
  6 12  1
 11 13  1
 12 14  2
 13 15  1
 13 16  2
 15 17  1
 15 18  1
 17 19  2
 18 20  2
 19 21  1
 21 22  2
 21 23  1
 22 24  1
 23 25  2
 24 26  2
 26 27  1
 27 28  1
  8  9  2
 14 16  1
 19 20  1
 25 26  1
M  END
> <COMPOUND_NAMES>
Compound 74 (S) (Page No: 78, Table No: 2)

> <Reference>
WO 2021/021761 A1

> <IC50_range_nM>
101-1000

> <smiles>
C[C@@H](c1cccc(c1)n1ncc(c2ccc(cc2)OC)n1)Sc1nncn1C

$$$$
C20H20N6OS
  MOLSOFT 03092310482D

 28 31  0  0  1  0  0  0  0  0999 V2000
    0.0000   -0.0000    0.0000 S   0  0  0
   -0.3276   -1.4507    0.0000 C   0  0  0
    1.4156    0.4680    0.0000 C   0  0  2
    0.6552   -2.5504    0.0000 N   0  0  0
   -1.7081   -2.0474    0.0000 N   0  0  0
    1.7198    1.9421    0.0000 C   0  0  0
    2.5153   -0.5148    0.0000 C   0  0  0
   -0.1053   -3.8374    0.0000 N   0  0  0
   -1.5677   -3.5215    0.0000 C   0  0  0
   -3.0184   -1.2869    0.0000 C   0  0  0
    0.5967    2.9599    0.0000 C   0  0  0
    3.1237    2.4100    0.0000 C   0  0  0
    0.9008    4.4340    0.0000 C   0  0  0
    3.4279    3.8842    0.0000 C   0  0  0
   -0.2223    5.4519    0.0000 N   0  0  0
    2.3048    4.9137    0.0000 C   0  0  0
   -0.0819    6.9494    0.0000 N   0  0  0
   -1.6964    5.1477    0.0000 N   0  0  0
   -1.4624    7.5694    0.0000 C   0  0  0
   -2.4568    6.4580    0.0000 C   0  0  0
   -1.7900    9.0435    0.0000 C   0  0  0
   -0.6903   10.0497    0.0000 C   0  0  0
   -3.2173    9.5115    0.0000 C   0  0  0
   -1.0178   11.5238    0.0000 C   0  0  0
   -3.5449   10.9856    0.0000 C   0  0  0
    0.0819   12.5299    0.0000 O   0  0  0
   -2.4568   11.9917    0.0000 C   0  0  0
   -0.2457   14.0040    0.0000 C   0  0  0
  1  2  1
  3  1  1  6  0
  2  4  2
  2  5  1
  3  6  1
  3  7  1
  4  8  1
  5  9  1
  5 10  1
  6 11  2
  6 12  1
 11 13  1
 12 14  2
 13 15  1
 13 16  2
 15 17  1
 15 18  1
 17 19  2
 18 20  2
 19 21  1
 21 22  2
 21 23  1
 22 24  1
 23 25  2
 24 26  1
 24 27  2
 26 28  1
  8  9  2
 14 16  1
 19 20  1
 25 27  1
M  END
> <COMPOUND_NAMES>
Compound 76 (S) (Page No: 78, Table No: 2)

> <Reference>
WO 2021/021761 A1

> <IC50_range_nM>
1001-5000

> <smiles>
C[C@@H](c1cccc(c1)n1ncc(c2cccc(c2)OC)n1)Sc1nncn1C

$$$$
C20H19N7OS
  MOLSOFT 03092310482D

 29 32  0  0  1  0  0  0  0  0999 V2000
    0.0000   -0.0000    0.0000 S   0  0  0
    0.8712   -1.2008    0.0000 C   0  0  0
   -1.4952   -0.1413    0.0000 C   0  0  2
    2.3546   -1.1891    0.0000 N   0  0  0
    0.4003   -2.6136    0.0000 N   0  0  0
   -2.3899    1.0831    0.0000 C   0  0  0
   -2.1191   -1.4952    0.0000 C   0  0  0
    2.8020   -2.6018    0.0000 N   0  0  0
    1.6011   -3.4848    0.0000 C   0  0  0
   -1.0360   -3.0610    0.0000 C   0  0  0
   -3.8851    0.9418    0.0000 C   0  0  0
   -1.7895    2.4605    0.0000 C   0  0  0
   -4.7798    2.1662    0.0000 C   0  0  0
   -2.6842    3.6849    0.0000 C   0  0  0
   -6.2750    2.0249    0.0000 N   0  0  0
   -4.1794    3.5437    0.0000 C   0  0  0
   -7.2874    3.1434    0.0000 N   0  0  0
   -7.0284    0.7417    0.0000 N   0  0  0
   -8.6649    2.5430    0.0000 C   0  0  0
   -8.5001    1.0596    0.0000 C   0  0  0
   -9.9717    3.2964    0.0000 C   0  0  0
  -11.2785    2.5665    0.0000 C   0  0  0
   -9.9834    4.8034    0.0000 C   0  0  0
  -12.5853    3.3200    0.0000 C   0  0  0
  -11.2902    5.5686    0.0000 C   0  0  0
  -13.8921    2.5900    0.0000 C   0  0  0
  -12.5970    4.8269    0.0000 C   0  0  0
  -15.1989    3.3435    0.0000 O   0  0  0
  -13.9038    1.1067    0.0000 N   0  0  0
  1  2  1
  3  1  1  1  0
  2  4  2
  2  5  1
  3  6  1
  3  7  1
  4  8  1
  5  9  1
  5 10  1
  6 11  2
  6 12  1
 11 13  1
 12 14  2
 13 15  1
 13 16  2
 15 17  1
 15 18  1
 17 19  2
 18 20  2
 19 21  1
 21 22  2
 21 23  1
 22 24  1
 23 25  2
 24 26  1
 24 27  2
 26 28  2
 26 29  1
  8  9  2
 14 16  1
 19 20  1
 25 27  1
M  END
> <COMPOUND_NAMES>
Compound 95 (S) (Page No: 79, Table No: 2)

> <Reference>
WO 2021/021761 A1

> <IC50_range_nM>
101-1000

> <smiles>
C[C@@H](c1cccc(c1)n1ncc(c2cccc(c2)C(N)=O)n1)Sc1nncn1C

$$$$
C20H19N7OS
  MOLSOFT 03092310482D

 29 32  0  0  1  0  0  0  0  0999 V2000
    0.0000   -0.0000    0.0000 S   0  0  0
    1.4777    0.1655    0.0000 C   0  0  0
   -0.6266   -1.3595    0.0000 C   0  0  2
    2.2225    1.4777    0.0000 N   0  0  0
    2.4708   -0.9339    0.0000 N   0  0  0
   -2.1279   -1.5014    0.0000 C   0  0  0
    0.2483   -2.5653    0.0000 C   0  0  0
    3.6766    1.1822    0.0000 N   0  0  0
    3.8303   -0.3074    0.0000 C   0  0  0
    2.1516   -2.3880    0.0000 C   0  0  0
   -2.7545   -2.8609    0.0000 C   0  0  0
   -3.0264   -0.2719    0.0000 C   0  0  0
   -4.2559   -3.0027    0.0000 C   0  0  0
   -4.5278   -0.4138    0.0000 C   0  0  0
   -4.8824   -4.3623    0.0000 N   0  0  0
   -5.1543   -1.7733    0.0000 C   0  0  0
   -6.3601   -4.6578    0.0000 N   0  0  0
   -4.1495   -5.6508    0.0000 N   0  0  0
   -6.5256   -6.1355    0.0000 C   0  0  0
   -5.1661   -6.7503    0.0000 C   0  0  0
   -7.8379   -6.8803    0.0000 C   0  0  0
   -7.8497   -8.3698    0.0000 C   0  0  0
   -9.1501   -6.1119    0.0000 C   0  0  0
   -9.1619   -9.1028    0.0000 C   0  0  0
  -10.4623   -6.8567    0.0000 C   0  0  0
  -10.4741   -8.3462    0.0000 C   0  0  0
  -11.7864   -9.0792    0.0000 C   0  0  0
  -13.0986   -8.3226    0.0000 O   0  0  0
  -11.7982  -10.5687    0.0000 N   0  0  0
  1  2  1
  3  1  1  1  0
  2  4  2
  2  5  1
  3  6  1
  3  7  1
  4  8  1
  5  9  1
  5 10  1
  6 11  2
  6 12  1
 11 13  1
 12 14  2
 13 15  1
 13 16  2
 15 17  1
 15 18  1
 17 19  2
 18 20  2
 19 21  1
 21 22  2
 21 23  1
 22 24  1
 23 25  2
 24 26  2
 26 27  1
 27 28  2
 27 29  1
  8  9  2
 14 16  1
 19 20  1
 25 26  1
M  END
> <COMPOUND_NAMES>
Compound 86 (S) (Page No: 78, Table No: 2)

> <Reference>
WO 2021/021761 A1

> <IC50_range_nM>
1001-5000

> <smiles>
C[C@@H](c1cccc(c1)n1ncc(c2ccc(cc2)C(N)=O)n1)Sc1nncn1C

$$$$
C21H21N7OS
  MOLSOFT 03092310482D

 30 33  0  0  1  0  0  0  0  0999 V2000
    0.0000   -0.0000    0.0000 S   0  0  0
   -0.3274   -1.4499    0.0000 C   0  0  0
    1.4149    0.4677    0.0000 C   0  0  2
    0.6548   -2.5491    0.0000 N   0  0  0
   -1.7072   -2.0463    0.0000 N   0  0  0
    1.7189    1.9410    0.0000 C   0  0  0
    2.5140   -0.5145    0.0000 C   0  0  0
   -0.1052   -3.8353    0.0000 N   0  0  0
   -1.5669   -3.5196    0.0000 C   0  0  0
   -3.0168   -1.2862    0.0000 C   0  0  0
    0.5963    2.9583    0.0000 C   0  0  0
    3.1220    2.4088    0.0000 C   0  0  0
    0.9004    4.4316    0.0000 C   0  0  0
    3.4260    3.8821    0.0000 C   0  0  0
   -0.2222    5.4489    0.0000 N   0  0  0
    2.3035    4.9111    0.0000 C   0  0  0
   -0.0819    6.9456    0.0000 N   0  0  0
   -1.6955    5.1449    0.0000 N   0  0  0
   -1.4616    7.5654    0.0000 C   0  0  0
   -2.4555    6.4545    0.0000 C   0  0  0
   -1.7890    9.0387    0.0000 C   0  0  0
   -3.2156    9.5064    0.0000 C   0  0  0
   -0.6899   10.0443    0.0000 C   0  0  0
   -3.5430   10.9797    0.0000 C   0  0  0
   -1.0173   11.5176    0.0000 C   0  0  0
   -4.9695   11.4591    0.0000 C   0  0  0
   -2.4438   11.9970    0.0000 C   0  0  0
   -5.2969   12.9325    0.0000 O   0  0  0
   -6.0921   10.4652    0.0000 N   0  0  0
   -7.5186   10.9330    0.0000 C   0  0  0
  1  2  1
  3  1  1  6  0
  2  4  2
  2  5  1
  3  6  1
  3  7  1
  4  8  1
  5  9  1
  5 10  1
  6 11  2
  6 12  1
 11 13  1
 12 14  2
 13 15  1
 13 16  2
 15 17  1
 15 18  1
 17 19  2
 18 20  2
 19 21  1
 21 22  2
 21 23  1
 22 24  1
 23 25  2
 24 26  1
 24 27  2
 26 28  2
 26 29  1
 29 30  1
  8  9  2
 14 16  1
 19 20  1
 25 27  1
M  END
> <COMPOUND_NAMES>
Compound 93 (S) (Page No: 79, Table No: 2)

> <Reference>
WO 2021/021761 A1

> <IC50_range_nM>
1001-5000

> <smiles>
C[C@@H](c1cccc(c1)n1ncc(c2cccc(c2)C(NC)=O)n1)Sc1nncn1C

$$$$
C21H21N7OS
  MOLSOFT 03092310482D

 30 33  0  0  1  0  0  0  0  0999 V2000
    0.0000   -0.0000    0.0000 S   0  0  0
   -0.3275   -1.4504    0.0000 C   0  0  0
    1.4153    0.4679    0.0000 C   0  0  2
    0.6550   -2.5498    0.0000 N   0  0  0
   -1.7077   -2.0469    0.0000 N   0  0  0
    1.7194    1.9416    0.0000 C   0  0  0
    2.5147   -0.5146    0.0000 C   0  0  0
   -0.1053   -3.8364    0.0000 N   0  0  0
   -1.5673   -3.5206    0.0000 C   0  0  0
   -3.0177   -1.2866    0.0000 C   0  0  0
    0.5965    2.9592    0.0000 C   0  0  0
    3.1229    2.4095    0.0000 C   0  0  0
    0.9006    4.4329    0.0000 C   0  0  0
    3.4270    3.8832    0.0000 C   0  0  0
   -0.2222    5.4505    0.0000 N   0  0  0
    2.3042    4.9125    0.0000 C   0  0  0
   -0.0819    6.9477    0.0000 N   0  0  0
   -1.6960    5.1464    0.0000 N   0  0  0
   -1.4620    7.5676    0.0000 C   0  0  0
   -2.4562    6.4564    0.0000 C   0  0  0
   -1.7895    9.0413    0.0000 C   0  0  0
   -0.6901   10.0472    0.0000 C   0  0  0
   -3.2165    9.5092    0.0000 C   0  0  0
   -1.0176   11.5209    0.0000 C   0  0  0
   -3.5440   10.9829    0.0000 C   0  0  0
   -2.4562   11.9888    0.0000 C   0  0  0
   -2.7837   13.4625    0.0000 C   0  0  0
   -1.6843   14.4684    0.0000 O   0  0  0
   -4.2107   13.9304    0.0000 N   0  0  0
   -4.5382   15.4041    0.0000 C   0  0  0
  1  2  1
  3  1  1  6  0
  2  4  2
  2  5  1
  3  6  1
  3  7  1
  4  8  1
  5  9  1
  5 10  1
  6 11  2
  6 12  1
 11 13  1
 12 14  2
 13 15  1
 13 16  2
 15 17  1
 15 18  1
 17 19  2
 18 20  2
 19 21  1
 21 22  2
 21 23  1
 22 24  1
 23 25  2
 24 26  2
 26 27  1
 27 28  2
 27 29  1
 29 30  1
  8  9  2
 14 16  1
 19 20  1
 25 26  1
M  END
> <COMPOUND_NAMES>
Compound 82 (S) (Page No: 78, Table No: 2)

> <Reference>
WO 2021/021761 A1

> <IC50_range_nM>
1001-5000

> <smiles>
C[C@@H](c1cccc(c1)n1ncc(c2ccc(cc2)C(NC)=O)n1)Sc1nncn1C

$$$$
C20H18N6O2S
  MOLSOFT 03092310482D

 29 32  0  0  1  0  0  0  0  0999 V2000
    0.0000   -0.0000    0.0000 S   0  0  0
    0.8712   -1.2008    0.0000 C   0  0  0
   -1.4952   -0.1413    0.0000 C   0  0  2
    2.3546   -1.1891    0.0000 N   0  0  0
    0.4003   -2.6136    0.0000 N   0  0  0
   -2.3899    1.0831    0.0000 C   0  0  0
   -2.1191   -1.4952    0.0000 C   0  0  0
    2.8020   -2.6018    0.0000 N   0  0  0
    1.6011   -3.4848    0.0000 C   0  0  0
   -1.0360   -3.0610    0.0000 C   0  0  0
   -3.8851    0.9418    0.0000 C   0  0  0
   -1.7895    2.4605    0.0000 C   0  0  0
   -4.7798    2.1662    0.0000 C   0  0  0
   -2.6842    3.6849    0.0000 C   0  0  0
   -6.2750    2.0249    0.0000 N   0  0  0
   -4.1794    3.5437    0.0000 C   0  0  0
   -7.2874    3.1434    0.0000 N   0  0  0
   -7.0284    0.7417    0.0000 N   0  0  0
   -8.6649    2.5430    0.0000 C   0  0  0
   -8.5001    1.0596    0.0000 C   0  0  0
   -9.9717    3.2964    0.0000 C   0  0  0
  -11.2785    2.5665    0.0000 C   0  0  0
   -9.9834    4.8034    0.0000 C   0  0  0
  -12.5853    3.3200    0.0000 C   0  0  0
  -11.2902    5.5686    0.0000 C   0  0  0
  -13.8921    2.5900    0.0000 C   0  0  0
  -12.5970    4.8269    0.0000 C   0  0  0
  -15.1989    3.3435    0.0000 O   0  0  0
  -13.9038    1.1067    0.0000 O   0  0  0
  1  2  1
  3  1  1  1  0
  2  4  2
  2  5  1
  3  6  1
  3  7  1
  4  8  1
  5  9  1
  5 10  1
  6 11  2
  6 12  1
 11 13  1
 12 14  2
 13 15  1
 13 16  2
 15 17  1
 15 18  1
 17 19  2
 18 20  2
 19 21  1
 21 22  2
 21 23  1
 22 24  1
 23 25  2
 24 26  1
 24 27  2
 26 28  2
 26 29  1
  8  9  2
 14 16  1
 19 20  1
 25 27  1
M  END
> <COMPOUND_NAMES>
Compound 90 (S) (Page No: 78, Table No: 2)

> <Reference>
WO 2021/021761 A1

> <IC50_range_nM>
1001-5000

> <smiles>
C[C@@H](c1cccc(c1)n1ncc(c2cccc(c2)C(O)=O)n1)Sc1nncn1C

$$$$
C20H18N6O2S
  MOLSOFT 03092310482D

 29 32  0  0  1  0  0  0  0  0999 V2000
    0.0000   -0.0000    0.0000 S   0  0  0
    1.4777    0.1655    0.0000 C   0  0  0
   -0.6266   -1.3595    0.0000 C   0  0  2
    2.2225    1.4777    0.0000 N   0  0  0
    2.4708   -0.9339    0.0000 N   0  0  0
   -2.1279   -1.5014    0.0000 C   0  0  0
    0.2483   -2.5653    0.0000 C   0  0  0
    3.6766    1.1822    0.0000 N   0  0  0
    3.8303   -0.3074    0.0000 C   0  0  0
    2.1516   -2.3880    0.0000 C   0  0  0
   -2.7545   -2.8609    0.0000 C   0  0  0
   -3.0264   -0.2719    0.0000 C   0  0  0
   -4.2559   -3.0027    0.0000 C   0  0  0
   -4.5278   -0.4138    0.0000 C   0  0  0
   -4.8824   -4.3623    0.0000 N   0  0  0
   -5.1543   -1.7733    0.0000 C   0  0  0
   -6.3601   -4.6578    0.0000 N   0  0  0
   -4.1495   -5.6508    0.0000 N   0  0  0
   -6.5256   -6.1355    0.0000 C   0  0  0
   -5.1661   -6.7503    0.0000 C   0  0  0
   -7.8379   -6.8803    0.0000 C   0  0  0
   -7.8497   -8.3698    0.0000 C   0  0  0
   -9.1501   -6.1119    0.0000 C   0  0  0
   -9.1619   -9.1028    0.0000 C   0  0  0
  -10.4623   -6.8567    0.0000 C   0  0  0
  -10.4741   -8.3462    0.0000 C   0  0  0
  -11.7864   -9.0792    0.0000 C   0  0  0
  -13.0986   -8.3226    0.0000 O   0  0  0
  -11.7982  -10.5687    0.0000 O   0  0  0
  1  2  1
  3  1  1  1  0
  2  4  2
  2  5  1
  3  6  1
  3  7  1
  4  8  1
  5  9  1
  5 10  1
  6 11  2
  6 12  1
 11 13  1
 12 14  2
 13 15  1
 13 16  2
 15 17  1
 15 18  1
 17 19  2
 18 20  2
 19 21  1
 21 22  2
 21 23  1
 22 24  1
 23 25  2
 24 26  2
 26 27  1
 27 28  2
 27 29  1
  8  9  2
 14 16  1
 19 20  1
 25 26  1
M  END
> <COMPOUND_NAMES>
Compound 80 (S) (Page No: 78, Table No: 2)

> <Reference>
WO 2021/021761 A1

> <IC50_range_nM>
>5000

> <smiles>
C[C@@H](c1cccc(c1)n1ncc(c2ccc(cc2)C(O)=O)n1)Sc1nncn1C

$$$$
C18H17N7S
  MOLSOFT 03092310482D

 26 29  0  0  1  0  0  0  0  0999 V2000
    0.0000   -0.0000    0.0000 S   0  0  0
   -0.9004    1.2321    0.0000 C   0  0  0
    1.4809    0.1659    0.0000 C   0  0  2
   -2.4168    1.2439    0.0000 N   0  0  0
   -0.4502    2.6774    0.0000 N   0  0  0
    2.3575   -1.0425    0.0000 C   0  0  0
    2.0851    1.5519    0.0000 C   0  0  0
   -2.8906    2.6892    0.0000 N   0  0  0
   -1.6823    3.5778    0.0000 C   0  0  0
    0.9714    3.1513    0.0000 C   0  0  0
    3.8384   -0.8767    0.0000 C   0  0  0
    1.7296   -2.4049    0.0000 C   0  0  0
    4.7151   -2.0851    0.0000 C   0  0  0
    2.6063   -3.6133    0.0000 C   0  0  0
    4.0872   -3.4475    0.0000 N   0  0  0
    6.1959   -1.9192    0.0000 N   0  0  0
    7.1911   -3.0210    0.0000 N   0  0  0
    6.9304   -0.6042    0.0000 N   0  0  0
    8.5535   -2.3931    0.0000 C   0  0  0
    8.3876   -0.9004    0.0000 C   0  0  0
    9.8448   -3.1394    0.0000 C   0  0  0
   11.1361   -2.3694    0.0000 C   0  0  0
    9.8329   -4.6321    0.0000 C   0  0  0
   12.4274   -3.1157    0.0000 C   0  0  0
   11.1243   -5.3785    0.0000 C   0  0  0
   12.4156   -4.6084    0.0000 C   0  0  0
  1  2  1
  3  1  1  1  0
  2  4  2
  2  5  1
  3  6  1
  3  7  1
  4  8  1
  5  9  1
  5 10  1
  6 11  2
  6 12  1
 11 13  1
 12 14  2
 13 15  2
 13 16  1
 16 17  1
 16 18  1
 17 19  2
 18 20  2
 19 21  1
 21 22  2
 21 23  1
 22 24  1
 23 25  2
 24 26  2
  8  9  2
 14 15  1
 19 20  1
 25 26  1
M  END
> <COMPOUND_NAMES>
Compound 101 (Page No: 79, Table No: 2)

> <Reference>
WO 2021/021761 A1

> <IC50_range_nM>
>5000

> <smiles>
C[C@@H](c1ccnc(c1)n1ncc(c2ccccc2)n1)Sc1nncn1C

$$$$
C19H18N6S
  MOLSOFT 03092310482D

 26 29  0  0  1  0  0  0  0  0999 V2000
    0.0000   -0.0000    0.0000 S   0  0  0
    0.8781    1.2340    0.0000 C   0  0  0
    0.6051   -1.3645    0.0000 C   0  0  2
    0.4034    2.6816    0.0000 N   0  0  0
    2.3731    1.2459    0.0000 N   0  0  0
   -0.2966   -2.5748    0.0000 C   0  0  0
    2.0883   -1.5069    0.0000 C   0  0  0
    1.6137    3.5834    0.0000 N   0  0  0
    2.8240    2.6935    0.0000 C   0  0  0
    3.2512    0.0356    0.0000 C   0  0  0
    0.3085   -3.9394    0.0000 C   0  0  0
   -1.8036   -2.4087    0.0000 C   0  0  0
   -0.5933   -5.1496    0.0000 C   0  0  0
   -2.7053   -3.6190    0.0000 C   0  0  0
    0.0119   -6.5142    0.0000 N   0  0  0
   -2.1002   -4.9835    0.0000 C   0  0  0
   -0.7475   -7.8075    0.0000 N   0  0  0
    1.4713   -6.8108    0.0000 C   0  0  0
    0.2492   -8.9110    0.0000 N   0  0  0
    1.6137   -8.2940    0.0000 C   0  0  0
    2.9071   -9.0415    0.0000 C   0  0  0
    4.2004   -8.2822    0.0000 C   0  0  0
    2.8952  -10.5366    0.0000 C   0  0  0
    5.4937   -9.0297    0.0000 C   0  0  0
    4.1885  -11.2723    0.0000 C   0  0  0
    5.4819  -10.5247    0.0000 C   0  0  0
  1  2  1
  3  1  1  1  0
  2  4  2
  2  5  1
  3  6  1
  3  7  1
  4  8  1
  5  9  1
  5 10  1
  6 11  2
  6 12  1
 11 13  1
 12 14  2
 13 15  1
 13 16  2
 15 17  1
 15 18  1
 17 19  2
 18 20  2
 20 21  1
 21 22  2
 21 23  1
 22 24  1
 23 25  2
 24 26  2
  8  9  2
 14 16  1
 19 20  1
 25 26  1
M  END
> <COMPOUND_NAMES>
Compound 167 (Page No: 80, Table No: 2)

> <Reference>
WO 2021/021761 A1

> <IC50_range_nM>
1001-5000

> <smiles>
C[C@@H](c1cccc(c1)n1cc(c2ccccc2)nn1)Sc1nncn1C

$$$$
C20H20N6OS
  MOLSOFT 03092310482D

 28 31  0  0  1  0  0  0  0  0999 V2000
    0.0000   -0.0000    0.0000 S   0  0  0
    0.8782    1.2342    0.0000 C   0  0  0
    0.6052   -1.3647    0.0000 C   0  0  2
    0.4035    2.6820    0.0000 N   0  0  0
    2.3734    1.2461    0.0000 N   0  0  0
   -0.2967   -2.5752    0.0000 C   0  0  0
    2.0886   -1.5071    0.0000 C   0  0  0
    1.6139    3.5839    0.0000 N   0  0  0
    2.8244    2.6938    0.0000 C   0  0  0
    3.2516    0.0356    0.0000 C   0  0  0
    0.3085   -3.9399    0.0000 C   0  0  0
   -1.8038   -2.4090    0.0000 C   0  0  0
   -0.5934   -5.1504    0.0000 C   0  0  0
   -2.7057   -3.6195    0.0000 C   0  0  0
    0.0119   -6.5151    0.0000 N   0  0  0
   -2.1005   -4.9842    0.0000 C   0  0  0
   -0.7476   -7.8086    0.0000 N   0  0  0
    1.4715   -6.8118    0.0000 C   0  0  0
    0.2492   -8.9122    0.0000 N   0  0  0
    1.6139   -8.2952    0.0000 C   0  0  0
    2.9075   -9.0428    0.0000 C   0  0  0
    4.2010   -8.2833    0.0000 C   0  0  0
    2.8956  -10.5380    0.0000 C   0  0  0
    5.4945   -9.0309    0.0000 C   0  0  0
    4.1891  -11.2738    0.0000 C   0  0  0
    5.4826  -10.5262    0.0000 C   0  0  0
    6.7880   -8.2714    0.0000 C   0  0  0
    8.0815   -9.0191    0.0000 O   0  0  0
  1  2  1
  3  1  1  1  0
  2  4  2
  2  5  1
  3  6  1
  3  7  1
  4  8  1
  5  9  1
  5 10  1
  6 11  2
  6 12  1
 11 13  1
 12 14  2
 13 15  1
 13 16  2
 15 17  1
 15 18  1
 17 19  2
 18 20  2
 20 21  1
 21 22  2
 21 23  1
 22 24  1
 23 25  2
 24 26  2
 24 27  1
 27 28  1
  8  9  2
 14 16  1
 19 20  1
 25 26  1
M  END
> <COMPOUND_NAMES>
Compound 92 (S) (Page No: 79, Table No: 2)

> <Reference>
WO 2021/021761 A1

> <IC50_range_nM>
>5000

> <smiles>
C[C@@H](c1cccc(c1)n1cc(c2cccc(CO)c2)nn1)Sc1nncn1C

$$$$
C20H20N6OS
  MOLSOFT 03092310482D

 28 31  0  0  1  0  0  0  0  0999 V2000
    0.0000   -0.0000    0.0000 S   0  0  0
    0.8784    1.2345    0.0000 C   0  0  0
    0.6054   -1.3650    0.0000 C   0  0  2
    0.4036    2.6826    0.0000 N   0  0  0
    2.3740    1.2463    0.0000 N   0  0  0
   -0.2967   -2.5758    0.0000 C   0  0  0
    2.0891   -1.5075    0.0000 C   0  0  0
    1.6143    3.5847    0.0000 N   0  0  0
    2.8250    2.6945    0.0000 C   0  0  0
    3.2523    0.0356    0.0000 C   0  0  0
    0.3086   -3.9408    0.0000 C   0  0  0
   -1.8042   -2.4096    0.0000 C   0  0  0
   -0.5935   -5.1515    0.0000 C   0  0  0
   -2.7063   -3.6203    0.0000 C   0  0  0
    0.0119   -6.5166    0.0000 N   0  0  0
   -2.1010   -4.9853    0.0000 C   0  0  0
   -0.7478   -7.8104    0.0000 N   0  0  0
    1.4719   -6.8133    0.0000 C   0  0  0
    0.2493   -8.9143    0.0000 N   0  0  0
    1.6143   -8.2970    0.0000 C   0  0  0
    2.9081   -9.0448    0.0000 C   0  0  0
    4.2019   -8.2852    0.0000 C   0  0  0
    2.8963  -10.5405    0.0000 C   0  0  0
    5.4958   -9.0330    0.0000 C   0  0  0
    4.1901  -11.2764    0.0000 C   0  0  0
    5.4839  -10.5286    0.0000 C   0  0  0
    6.7777  -11.2645    0.0000 C   0  0  0
    6.7658  -12.7601    0.0000 O   0  0  0
  1  2  1
  3  1  1  1  0
  2  4  2
  2  5  1
  3  6  1
  3  7  1
  4  8  1
  5  9  1
  5 10  1
  6 11  2
  6 12  1
 11 13  1
 12 14  2
 13 15  1
 13 16  2
 15 17  1
 15 18  1
 17 19  2
 18 20  2
 20 21  1
 21 22  2
 21 23  1
 22 24  1
 23 25  2
 24 26  2
 26 27  1
 27 28  1
  8  9  2
 14 16  1
 19 20  1
 25 26  1
M  END
> <COMPOUND_NAMES>
Compound 85 (S) (Page No: 78, Table No: 2)

> <Reference>
WO 2021/021761 A1

> <IC50_range_nM>
>5000

> <smiles>
C[C@@H](c1cccc(c1)n1cc(c2ccc(CO)cc2)nn1)Sc1nncn1C

$$$$
C20H20N6OS
  MOLSOFT 03092310482D

 28 31  0  0  1  0  0  0  0  0999 V2000
    0.0000   -0.0000    0.0000 S   0  0  0
   -0.3275   -1.4503    0.0000 C   0  0  0
    1.4153    0.4679    0.0000 C   0  0  2
    0.6550   -2.5498    0.0000 N   0  0  0
   -1.7077   -2.0469    0.0000 N   0  0  0
    1.7194    1.9416    0.0000 C   0  0  0
    2.5147   -0.5146    0.0000 C   0  0  0
   -0.1053   -3.8364    0.0000 N   0  0  0
   -1.5673   -3.5206    0.0000 C   0  0  0
   -3.0177   -1.2866    0.0000 C   0  0  0
    0.5965    2.9592    0.0000 C   0  0  0
    3.1229    2.4094    0.0000 C   0  0  0
    0.9006    4.4329    0.0000 C   0  0  0
    3.4270    3.8832    0.0000 C   0  0  0
   -0.2222    5.4505    0.0000 N   0  0  0
    2.3042    4.9125    0.0000 C   0  0  0
   -1.6960    5.1464    0.0000 N   0  0  0
   -0.0819    6.9476    0.0000 C   0  0  0
   -2.4562    6.4564    0.0000 N   0  0  0
   -1.4620    7.5675    0.0000 C   0  0  0
   -1.7895    9.0413    0.0000 C   0  0  0
   -0.6901   10.0472    0.0000 C   0  0  0
   -3.2165    9.5091    0.0000 C   0  0  0
   -1.0176   11.5209    0.0000 C   0  0  0
   -3.5440   10.9829    0.0000 C   0  0  0
   -2.4562   11.9888    0.0000 C   0  0  0
   -2.7837   13.4625    0.0000 O   0  0  0
   -4.2107   13.9304    0.0000 C   0  0  0
  1  2  1
  3  1  1  6  0
  2  4  2
  2  5  1
  3  6  1
  3  7  1
  4  8  1
  5  9  1
  5 10  1
  6 11  2
  6 12  1
 11 13  1
 12 14  2
 13 15  1
 13 16  2
 15 17  1
 15 18  1
 17 19  2
 18 20  2
 20 21  1
 21 22  2
 21 23  1
 22 24  1
 23 25  2
 24 26  2
 26 27  1
 27 28  1
  8  9  2
 14 16  1
 19 20  1
 25 26  1
M  END
> <COMPOUND_NAMES>
Compound 75 (S) (Page No: 78, Table No: 2)

> <Reference>
WO 2021/021761 A1

> <IC50_range_nM>
1001-5000

> <smiles>
C[C@@H](c1cccc(c1)n1cc(c2ccc(cc2)OC)nn1)Sc1nncn1C

$$$$
C20H20N6OS
  MOLSOFT 03092310482D

 28 31  0  0  1  0  0  0  0  0999 V2000
    0.0000   -0.0000    0.0000 S   0  0  0
   -0.3276   -1.4507    0.0000 C   0  0  0
    1.4156    0.4680    0.0000 C   0  0  2
    0.6552   -2.5504    0.0000 N   0  0  0
   -1.7081   -2.0474    0.0000 N   0  0  0
    1.7198    1.9421    0.0000 C   0  0  0
    2.5153   -0.5148    0.0000 C   0  0  0
   -0.1053   -3.8374    0.0000 N   0  0  0
   -1.5677   -3.5215    0.0000 C   0  0  0
   -3.0184   -1.2869    0.0000 C   0  0  0
    0.5967    2.9599    0.0000 C   0  0  0
    3.1237    2.4100    0.0000 C   0  0  0
    0.9008    4.4340    0.0000 C   0  0  0
    3.4279    3.8842    0.0000 C   0  0  0
   -0.2223    5.4519    0.0000 N   0  0  0
    2.3048    4.9137    0.0000 C   0  0  0
   -1.6964    5.1477    0.0000 N   0  0  0
   -0.0819    6.9494    0.0000 C   0  0  0
   -2.4568    6.4580    0.0000 N   0  0  0
   -1.4624    7.5694    0.0000 C   0  0  0
   -1.7900    9.0435    0.0000 C   0  0  0
   -0.6903   10.0497    0.0000 C   0  0  0
   -3.2173    9.5115    0.0000 C   0  0  0
   -1.0178   11.5238    0.0000 C   0  0  0
   -3.5449   10.9856    0.0000 C   0  0  0
    0.0819   12.5299    0.0000 O   0  0  0
   -2.4568   11.9917    0.0000 C   0  0  0
   -0.2457   14.0040    0.0000 C   0  0  0
  1  2  1
  3  1  1  6  0
  2  4  2
  2  5  1
  3  6  1
  3  7  1
  4  8  1
  5  9  1
  5 10  1
  6 11  2
  6 12  1
 11 13  1
 12 14  2
 13 15  1
 13 16  2
 15 17  1
 15 18  1
 17 19  2
 18 20  2
 20 21  1
 21 22  2
 21 23  1
 22 24  1
 23 25  2
 24 26  1
 24 27  2
 26 28  1
  8  9  2
 14 16  1
 19 20  1
 25 27  1
M  END
> <COMPOUND_NAMES>
Compound 77 (S) (Page No: 78, Table No: 2)

> <Reference>
WO 2021/021761 A1

> <IC50_range_nM>
1001-5000

> <smiles>
C[C@@H](c1cccc(c1)n1cc(c2cccc(c2)OC)nn1)Sc1nncn1C

$$$$
C19H17ClN6S
  MOLSOFT 03092310482D

 27 30  0  0  1  0  0  0  0  0999 V2000
    0.0000   -0.0000    0.0000 Cl  0  0  0
   -0.0118    1.5050    0.0000 C   0  0  0
   -1.3168    2.2574    0.0000 C   0  0  0
    1.2698    2.2574    0.0000 C   0  0  0
   -1.3286    3.7624    0.0000 C   0  0  0
    1.2581    3.7624    0.0000 C   0  0  0
   -2.6337    4.5149    0.0000 C   0  0  0
   -0.0470    4.5149    0.0000 C   0  0  0
   -4.0093    3.9153    0.0000 N   0  0  0
   -2.7983    6.0081    0.0000 C   0  0  0
   -5.0205    5.0322    0.0000 N   0  0  0
   -4.2680    6.3255    0.0000 N   0  0  0
   -4.8911    7.7012    0.0000 C   0  0  0
   -4.0211    8.9240    0.0000 C   0  0  0
   -6.3843    7.8658    0.0000 C   0  0  0
   -4.6442   10.2996    0.0000 C   0  0  0
   -7.0075    9.2414    0.0000 C   0  0  0
   -6.1374   10.4642    0.0000 C   0  0  0
   -3.7742   11.5224    0.0000 C   0  0  1
   -4.3973   12.8980    0.0000 S   0  0  0
   -2.3045   11.3813    0.0000 C   0  0  0
   -3.5273   14.1208    0.0000 C   0  0  0
   -3.9976   15.5552    0.0000 N   0  0  0
   -2.0458   14.1325    0.0000 N   0  0  0
   -2.7983   16.4488    0.0000 N   0  0  0
   -1.5990   15.5669    0.0000 C   0  0  0
   -1.1758   12.9333    0.0000 C   0  0  0
  1  2  1
  2  3  2
  2  4  1
  3  5  1
  4  6  2
  5  7  1
  5  8  2
  7  9  1
  7 10  2
  9 11  2
 10 12  1
 12 13  1
 13 14  2
 13 15  1
 14 16  1
 15 17  2
 16 18  2
 19 16  1
 19 20  1  1  0
 19 21  1
 20 22  1
 22 23  2
 22 24  1
 23 25  1
 24 26  1
 24 27  1
  6  8  1
 11 12  1
 17 18  1
 25 26  2
M  END
> <COMPOUND_NAMES>
Compound 79 (S) (Page No: 78, Table No: 2)

> <Reference>
WO 2021/021761 A1

> <IC50_range_nM>
1001-5000

> <smiles>
C[C@@H](c1cccc(c1)n1cc(c2cccc(c2)[Cl])nn1)Sc1nncn1C

$$$$
C19H17ClN6S
  MOLSOFT 03092310482D

 27 30  0  0  1  0  0  0  0  0999 V2000
    0.0000   -0.0000    0.0000 Cl  0  0  0
   -1.3047    0.7523    0.0000 C   0  0  0
   -1.3165    2.2568    0.0000 C   0  0  0
   -2.6094    0.0235    0.0000 C   0  0  0
   -2.6212    3.0091    0.0000 C   0  0  0
   -3.9141    0.7758    0.0000 C   0  0  0
   -3.9259    2.2685    0.0000 C   0  0  0
   -5.2306    3.0208    0.0000 C   0  0  0
   -6.6058    2.4214    0.0000 N   0  0  0
   -5.3951    4.5136    0.0000 C   0  0  0
   -7.6167    3.5380    0.0000 N   0  0  0
   -6.8644    4.8310    0.0000 N   0  0  0
   -7.4874    6.2062    0.0000 C   0  0  0
   -6.6176    7.4286    0.0000 C   0  0  0
   -8.9802    6.3707    0.0000 C   0  0  0
   -7.2405    8.8039    0.0000 C   0  0  0
   -9.6031    7.7460    0.0000 C   0  0  0
   -8.7333    8.9684    0.0000 C   0  0  0
   -6.3707   10.0263    0.0000 C   0  0  1
   -6.9937   11.4015    0.0000 S   0  0  0
   -4.9015    9.8852    0.0000 C   0  0  0
   -6.1239   12.6239    0.0000 C   0  0  0
   -6.5941   14.0580    0.0000 N   0  0  0
   -4.6429   12.6357    0.0000 N   0  0  0
   -5.3951   14.9513    0.0000 N   0  0  0
   -4.1962   14.0697    0.0000 C   0  0  0
   -3.7731   11.4368    0.0000 C   0  0  0
  1  2  1
  2  3  2
  2  4  1
  3  5  1
  4  6  2
  5  7  2
  7  8  1
  8  9  1
  8 10  2
  9 11  2
 10 12  1
 12 13  1
 13 14  2
 13 15  1
 14 16  1
 15 17  2
 16 18  2
 19 16  1
 19 20  1  1  0
 19 21  1
 20 22  1
 22 23  2
 22 24  1
 23 25  1
 24 26  1
 24 27  1
  6  7  1
 11 12  1
 17 18  1
 25 26  2
M  END
> <COMPOUND_NAMES>
Compound 73 (S) (Page No: 78, Table No: 2)

> <Reference>
WO 2021/021761 A1

> <IC50_range_nM>
1001-5000

> <smiles>
C[C@@H](c1cccc(c1)n1cc(c2ccc(cc2)[Cl])nn1)Sc1nncn1C

$$$$
C20H17N7S
  MOLSOFT 03092310482D

 28 31  0  0  1  0  0  0  0  0999 V2000
    0.0000   -0.0000    0.0000 S   0  0  0
   -0.8937   -1.1994    0.0000 C   0  0  0
   -0.6232    1.3758    0.0000 C   0  0  2
   -0.4469   -2.6106    0.0000 N   0  0  0
   -2.3989   -1.1877    0.0000 N   0  0  0
    0.2469    2.5988    0.0000 C   0  0  0
   -2.1167    1.5405    0.0000 C   0  0  0
   -1.6698   -3.4807    0.0000 N   0  0  0
   -2.8693   -2.5988    0.0000 C   0  0  0
   -3.2926    0.0353    0.0000 C   0  0  0
   -0.3763    3.9746    0.0000 C   0  0  0
    1.7169    2.4577    0.0000 C   0  0  0
    0.4939    5.1976    0.0000 C   0  0  0
    2.5870    3.6807    0.0000 C   0  0  0
   -0.1294    6.5734    0.0000 N   0  0  0
    1.9638    5.0565    0.0000 C   0  0  0
    0.5997    7.8787    0.0000 N   0  0  0
   -1.5993    6.8909    0.0000 C   0  0  0
   -0.4116    8.9958    0.0000 N   0  0  0
   -1.7639    8.3844    0.0000 C   0  0  0
   -3.0692    9.1370    0.0000 C   0  0  0
   -4.3745    8.4079    0.0000 C   0  0  0
   -3.0809   10.6421    0.0000 C   0  0  0
   -5.6797    9.1605    0.0000 C   0  0  0
   -4.3862   11.3947    0.0000 C   0  0  0
   -5.6915   10.6657    0.0000 C   0  0  0
   -6.9968   11.4183    0.0000 C   0  0  0
   -8.3020   12.1709    0.0000 N   0  0  0
  1  2  1
  3  1  1  1  0
  2  4  2
  2  5  1
  3  6  1
  3  7  1
  4  8  1
  5  9  1
  5 10  1
  6 11  2
  6 12  1
 11 13  1
 12 14  2
 13 15  1
 13 16  2
 15 17  1
 15 18  1
 17 19  2
 18 20  2
 20 21  1
 21 22  2
 21 23  1
 22 24  1
 23 25  2
 24 26  2
 26 27  1
 27 28  3
  8  9  2
 14 16  1
 19 20  1
 25 26  1
M  END
> <COMPOUND_NAMES>
Compound 89 (S) (Page No: 78, Table No: 1)

> <Reference>
WO 2021/021761 A1

> <IC50_range_nM>
1001-5000

> <smiles>
C[C@@H](c1cccc(c1)n1cc(c2ccc(C#N)cc2)nn1)Sc1nncn1C

$$$$
C20H17N7S
  MOLSOFT 03092310482D

 28 31  0  0  1  0  0  0  0  0999 V2000
    0.0000   -0.0000    0.0000 S   0  0  0
   -1.4968    0.1650    0.0000 C   0  0  0
    0.8721    1.2257    0.0000 C   0  0  2
   -2.5103   -0.9311    0.0000 N   0  0  0
   -2.2510    1.4732    0.0000 N   0  0  0
    2.3453    1.0843    0.0000 C   0  0  0
    0.2475    2.6046    0.0000 C   0  0  0
   -3.8892   -0.3064    0.0000 N   0  0  0
   -3.7242    1.1785    0.0000 C   0  0  0
   -1.6500    2.8521    0.0000 C   0  0  0
    3.2174    2.3100    0.0000 C   0  0  0
    2.9464   -0.2711    0.0000 C   0  0  0
    4.6906    2.1685    0.0000 C   0  0  0
    4.4196   -0.4125    0.0000 C   0  0  0
    5.5627    3.3942    0.0000 N   0  0  0
    5.2917    0.8132    0.0000 C   0  0  0
    7.0477    3.4060    0.0000 N   0  0  0
    5.0913    4.8320    0.0000 C   0  0  0
    7.4956    4.8438    0.0000 N   0  0  0
    6.2934    5.7277    0.0000 C   0  0  0
    6.2817    7.2363    0.0000 C   0  0  0
    4.9735    7.9906    0.0000 C   0  0  0
    7.5663    7.9906    0.0000 C   0  0  0
    4.9617    9.4991    0.0000 C   0  0  0
    7.5545    9.4991    0.0000 C   0  0  0
    3.6535   10.2534    0.0000 C   0  0  0
    6.2463   10.2534    0.0000 C   0  0  0
    2.3453   11.0076    0.0000 N   0  0  0
  1  2  1
  3  1  1  1  0
  2  4  2
  2  5  1
  3  6  1
  3  7  1
  4  8  1
  5  9  1
  5 10  1
  6 11  2
  6 12  1
 11 13  1
 12 14  2
 13 15  1
 13 16  2
 15 17  1
 15 18  1
 17 19  2
 18 20  2
 20 21  1
 21 22  2
 21 23  1
 22 24  1
 23 25  2
 24 26  1
 24 27  2
 26 28  3
  8  9  2
 14 16  1
 19 20  1
 25 27  1
M  END
> <COMPOUND_NAMES>
Compound 98 (S) (Page No: 79, Table No: 2)

> <Reference>
WO 2021/021761 A1

> <IC50_range_nM>
>5000

> <smiles>
C[C@@H](c1cccc(c1)n1cc(c2cccc(C#N)c2)nn1)Sc1nncn1C

$$$$
C20H19N7OS
  MOLSOFT 03092310482D

 29 32  0  0  1  0  0  0  0  0999 V2000
    0.0000   -0.0000    0.0000 S   0  0  0
   -0.8943   -1.2002    0.0000 C   0  0  0
   -0.6236    1.3767    0.0000 C   0  0  2
   -0.4471   -2.6122    0.0000 N   0  0  0
   -2.4004   -1.1884    0.0000 N   0  0  0
    0.2471    2.6004    0.0000 C   0  0  0
   -2.1180    1.5414    0.0000 C   0  0  0
   -1.6709   -3.4829    0.0000 N   0  0  0
   -2.8711   -2.6004    0.0000 C   0  0  0
   -3.2946    0.0353    0.0000 C   0  0  0
   -0.3765    3.9771    0.0000 C   0  0  0
    1.7179    2.4592    0.0000 C   0  0  0
    0.4942    5.2008    0.0000 C   0  0  0
    2.5887    3.6829    0.0000 C   0  0  0
   -0.1294    6.5775    0.0000 N   0  0  0
    1.9650    5.0596    0.0000 C   0  0  0
    0.6001    7.8836    0.0000 N   0  0  0
   -1.6003    6.8952    0.0000 C   0  0  0
   -0.4118    9.0015    0.0000 N   0  0  0
   -1.7650    8.3896    0.0000 C   0  0  0
   -3.0711    9.1427    0.0000 C   0  0  0
   -4.3772    8.4131    0.0000 C   0  0  0
   -3.0829   10.6488    0.0000 C   0  0  0
   -5.6833    9.1662    0.0000 C   0  0  0
   -4.3889   11.4018    0.0000 C   0  0  0
   -6.9894    8.4367    0.0000 C   0  0  0
   -5.6950   10.6723    0.0000 C   0  0  0
   -8.2955    9.1897    0.0000 O   0  0  0
   -7.0011    6.9541    0.0000 N   0  0  0
  1  2  1
  3  1  1  1  0
  2  4  2
  2  5  1
  3  6  1
  3  7  1
  4  8  1
  5  9  1
  5 10  1
  6 11  2
  6 12  1
 11 13  1
 12 14  2
 13 15  1
 13 16  2
 15 17  1
 15 18  1
 17 19  2
 18 20  2
 20 21  1
 21 22  2
 21 23  1
 22 24  1
 23 25  2
 24 26  1
 24 27  2
 26 28  2
 26 29  1
  8  9  2
 14 16  1
 19 20  1
 25 27  1
M  END
> <COMPOUND_NAMES>
Compound 96 (S) (Page No: 79, Table No: 2)

> <Reference>
WO 2021/021761 A1

> <IC50_range_nM>
1001-5000

> <smiles>
C[C@@H](c1cccc(c1)n1cc(c2cccc(c2)C(N)=O)nn1)Sc1nncn1C

$$$$
C20H19N7OS
  MOLSOFT 03092310482D

 29 32  0  0  1  0  0  0  0  0999 V2000
    0.0000   -0.0000    0.0000 S   0  0  0
    0.6008   -1.3547    0.0000 C   0  0  0
   -1.4961    0.1649    0.0000 C   0  0  2
    2.0498   -1.6492    0.0000 N   0  0  0
   -0.1649   -2.6388    0.0000 N   0  0  0
   -2.1204    1.5432    0.0000 C   0  0  0
   -2.3914   -1.0367    0.0000 C   0  0  0
    2.1911   -3.1218    0.0000 N   0  0  0
    0.8246   -3.7343    0.0000 C   0  0  0
   -1.6610   -2.7801    0.0000 C   0  0  0
   -3.6165    1.7081    0.0000 C   0  0  0
   -1.2487    2.7684    0.0000 C   0  0  0
   -4.2409    3.0864    0.0000 C   0  0  0
   -1.8731    4.1466    0.0000 C   0  0  0
   -5.7370    3.2513    0.0000 N   0  0  0
   -3.3691    4.3116    0.0000 C   0  0  0
   -6.4909    4.5589    0.0000 N   0  0  0
   -6.7501    2.1558    0.0000 C   0  0  0
   -7.9634    4.2644    0.0000 N   0  0  0
   -8.1284    2.7801    0.0000 C   0  0  0
   -9.4360    2.0380    0.0000 C   0  0  0
   -9.4477    0.5537    0.0000 C   0  0  0
  -10.7436    2.8037    0.0000 C   0  0  0
  -10.7554   -0.1885    0.0000 C   0  0  0
  -12.0512    2.0615    0.0000 C   0  0  0
  -12.0630    0.5655    0.0000 C   0  0  0
  -13.3706   -0.1767    0.0000 C   0  0  0
  -14.6782    0.5772    0.0000 O   0  0  0
  -13.3823   -1.6610    0.0000 N   0  0  0
  1  2  1
  3  1  1  1  0
  2  4  2
  2  5  1
  3  6  1
  3  7  1
  4  8  1
  5  9  1
  5 10  1
  6 11  2
  6 12  1
 11 13  1
 12 14  2
 13 15  1
 13 16  2
 15 17  1
 15 18  1
 17 19  2
 18 20  2
 20 21  1
 21 22  2
 21 23  1
 22 24  1
 23 25  2
 24 26  2
 26 27  1
 27 28  2
 27 29  1
  8  9  2
 14 16  1
 19 20  1
 25 26  1
M  END
> <COMPOUND_NAMES>
Compound 87 (S) (Page No: 78, Table No: 2)

> <Reference>
WO 2021/021761 A1

> <IC50_range_nM>
1001-5000

> <smiles>
C[C@@H](c1cccc(c1)n1cc(c2ccc(cc2)C(N)=O)nn1)Sc1nncn1C

$$$$
C21H21N7OS
  MOLSOFT 03092310482D

 30 33  0  0  1  0  0  0  0  0999 V2000
    0.0000   -0.0000    0.0000 S   0  0  0
   -0.3274   -1.4499    0.0000 C   0  0  0
    1.4149    0.4677    0.0000 C   0  0  2
    0.6548   -2.5491    0.0000 N   0  0  0
   -1.7072   -2.0463    0.0000 N   0  0  0
    1.7189    1.9410    0.0000 C   0  0  0
    2.5140   -0.5145    0.0000 C   0  0  0
   -0.1052   -3.8353    0.0000 N   0  0  0
   -1.5669   -3.5196    0.0000 C   0  0  0
   -3.0168   -1.2862    0.0000 C   0  0  0
    0.5963    2.9583    0.0000 C   0  0  0
    3.1220    2.4088    0.0000 C   0  0  0
    0.9004    4.4316    0.0000 C   0  0  0
    3.4260    3.8821    0.0000 C   0  0  0
   -0.2222    5.4489    0.0000 N   0  0  0
    2.3035    4.9111    0.0000 C   0  0  0
   -1.6955    5.1449    0.0000 N   0  0  0
   -0.0819    6.9456    0.0000 C   0  0  0
   -2.4555    6.4545    0.0000 N   0  0  0
   -1.4616    7.5654    0.0000 C   0  0  0
   -1.7890    9.0387    0.0000 C   0  0  0
   -3.2156    9.5064    0.0000 C   0  0  0
   -0.6899   10.0443    0.0000 C   0  0  0
   -3.5430   10.9797    0.0000 C   0  0  0
   -1.0173   11.5176    0.0000 C   0  0  0
   -4.9695   11.4591    0.0000 C   0  0  0
   -2.4438   11.9970    0.0000 C   0  0  0
   -5.2969   12.9325    0.0000 O   0  0  0
   -6.0921   10.4652    0.0000 N   0  0  0
   -7.5186   10.9330    0.0000 C   0  0  0
  1  2  1
  3  1  1  6  0
  2  4  2
  2  5  1
  3  6  1
  3  7  1
  4  8  1
  5  9  1
  5 10  1
  6 11  2
  6 12  1
 11 13  1
 12 14  2
 13 15  1
 13 16  2
 15 17  1
 15 18  1
 17 19  2
 18 20  2
 20 21  1
 21 22  2
 21 23  1
 22 24  1
 23 25  2
 24 26  1
 24 27  2
 26 28  2
 26 29  1
 29 30  1
  8  9  2
 14 16  1
 19 20  1
 25 27  1
M  END
> <COMPOUND_NAMES>
Compound 94 (S) (Page No: 79, Table No: 2)

> <Reference>
WO 2021/021761 A1

> <IC50_range_nM>
>5000

> <smiles>
C[C@@H](c1cccc(c1)n1cc(c2cccc(c2)C(NC)=O)nn1)Sc1nncn1C

$$$$
C21H21N7OS
  MOLSOFT 03092310482D

 30 33  0  0  1  0  0  0  0  0999 V2000
    0.0000   -0.0000    0.0000 S   0  0  0
   -0.3275   -1.4504    0.0000 C   0  0  0
    1.4153    0.4679    0.0000 C   0  0  2
    0.6550   -2.5498    0.0000 N   0  0  0
   -1.7077   -2.0469    0.0000 N   0  0  0
    1.7194    1.9416    0.0000 C   0  0  0
    2.5147   -0.5146    0.0000 C   0  0  0
   -0.1053   -3.8364    0.0000 N   0  0  0
   -1.5673   -3.5206    0.0000 C   0  0  0
   -3.0177   -1.2866    0.0000 C   0  0  0
    0.5965    2.9592    0.0000 C   0  0  0
    3.1229    2.4095    0.0000 C   0  0  0
    0.9006    4.4329    0.0000 C   0  0  0
    3.4270    3.8832    0.0000 C   0  0  0
   -0.2222    5.4505    0.0000 N   0  0  0
    2.3042    4.9125    0.0000 C   0  0  0
   -1.6960    5.1464    0.0000 N   0  0  0
   -0.0819    6.9477    0.0000 C   0  0  0
   -2.4562    6.4564    0.0000 N   0  0  0
   -1.4620    7.5676    0.0000 C   0  0  0
   -1.7895    9.0413    0.0000 C   0  0  0
   -0.6901   10.0472    0.0000 C   0  0  0
   -3.2165    9.5092    0.0000 C   0  0  0
   -1.0176   11.5209    0.0000 C   0  0  0
   -3.5440   10.9829    0.0000 C   0  0  0
   -2.4562   11.9888    0.0000 C   0  0  0
   -2.7837   13.4625    0.0000 C   0  0  0
   -1.6843   14.4684    0.0000 O   0  0  0
   -4.2107   13.9304    0.0000 N   0  0  0
   -4.5382   15.4041    0.0000 C   0  0  0
  1  2  1
  3  1  1  6  0
  2  4  2
  2  5  1
  3  6  1
  3  7  1
  4  8  1
  5  9  1
  5 10  1
  6 11  2
  6 12  1
 11 13  1
 12 14  2
 13 15  1
 13 16  2
 15 17  1
 15 18  1
 17 19  2
 18 20  2
 20 21  1
 21 22  2
 21 23  1
 22 24  1
 23 25  2
 24 26  2
 26 27  1
 27 28  2
 27 29  1
 29 30  1
  8  9  2
 14 16  1
 19 20  1
 25 26  1
M  END
> <COMPOUND_NAMES>
Compound 83 (S) (Page No: 78, Table No: 2)

> <Reference>
WO 2021/021761 A1

> <IC50_range_nM>
>5000

> <smiles>
C[C@@H](c1cccc(c1)n1cc(c2ccc(cc2)C(NC)=O)nn1)Sc1nncn1C

$$$$
C20H18N6O2S
  MOLSOFT 03092310482D

 29 32  0  0  1  0  0  0  0  0999 V2000
    0.0000   -0.0000    0.0000 S   0  0  0
   -0.8943   -1.2002    0.0000 C   0  0  0
   -0.6236    1.3767    0.0000 C   0  0  2
   -0.4471   -2.6122    0.0000 N   0  0  0
   -2.4004   -1.1884    0.0000 N   0  0  0
    0.2471    2.6004    0.0000 C   0  0  0
   -2.1180    1.5414    0.0000 C   0  0  0
   -1.6709   -3.4829    0.0000 N   0  0  0
   -2.8711   -2.6004    0.0000 C   0  0  0
   -3.2946    0.0353    0.0000 C   0  0  0
   -0.3765    3.9771    0.0000 C   0  0  0
    1.7179    2.4592    0.0000 C   0  0  0
    0.4942    5.2008    0.0000 C   0  0  0
    2.5887    3.6829    0.0000 C   0  0  0
   -0.1294    6.5775    0.0000 N   0  0  0
    1.9650    5.0596    0.0000 C   0  0  0
    0.6001    7.8836    0.0000 N   0  0  0
   -1.6003    6.8952    0.0000 C   0  0  0
   -0.4118    9.0015    0.0000 N   0  0  0
   -1.7650    8.3896    0.0000 C   0  0  0
   -3.0711    9.1427    0.0000 C   0  0  0
   -4.3772    8.4131    0.0000 C   0  0  0
   -3.0829   10.6488    0.0000 C   0  0  0
   -5.6833    9.1662    0.0000 C   0  0  0
   -4.3889   11.4018    0.0000 C   0  0  0
   -6.9894    8.4367    0.0000 C   0  0  0
   -5.6950   10.6723    0.0000 C   0  0  0
   -8.2955    9.1897    0.0000 O   0  0  0
   -7.0011    6.9541    0.0000 O   0  0  0
  1  2  1
  3  1  1  1  0
  2  4  2
  2  5  1
  3  6  1
  3  7  1
  4  8  1
  5  9  1
  5 10  1
  6 11  2
  6 12  1
 11 13  1
 12 14  2
 13 15  1
 13 16  2
 15 17  1
 15 18  1
 17 19  2
 18 20  2
 20 21  1
 21 22  2
 21 23  1
 22 24  1
 23 25  2
 24 26  1
 24 27  2
 26 28  2
 26 29  1
  8  9  2
 14 16  1
 19 20  1
 25 27  1
M  END
> <COMPOUND_NAMES>
Compound 91 (S) (Page No: 79, Table No: 2)

> <Reference>
WO 2021/021761 A1

> <IC50_range_nM>
>5000

> <smiles>
C[C@@H](c1cccc(c1)n1cc(c2cccc(c2)C(O)=O)nn1)Sc1nncn1C

$$$$
C20H18N6O2S
  MOLSOFT 03092310482D

 29 32  0  0  1  0  0  0  0  0999 V2000
    0.0000   -0.0000    0.0000 S   0  0  0
    0.6008   -1.3547    0.0000 C   0  0  0
   -1.4961    0.1649    0.0000 C   0  0  2
    2.0498   -1.6492    0.0000 N   0  0  0
   -0.1649   -2.6388    0.0000 N   0  0  0
   -2.1204    1.5432    0.0000 C   0  0  0
   -2.3914   -1.0367    0.0000 C   0  0  0
    2.1911   -3.1218    0.0000 N   0  0  0
    0.8246   -3.7343    0.0000 C   0  0  0
   -1.6610   -2.7801    0.0000 C   0  0  0
   -3.6165    1.7081    0.0000 C   0  0  0
   -1.2487    2.7684    0.0000 C   0  0  0
   -4.2409    3.0864    0.0000 C   0  0  0
   -1.8731    4.1466    0.0000 C   0  0  0
   -5.7370    3.2513    0.0000 N   0  0  0
   -3.3691    4.3116    0.0000 C   0  0  0
   -6.4909    4.5589    0.0000 N   0  0  0
   -6.7501    2.1558    0.0000 C   0  0  0
   -7.9634    4.2644    0.0000 N   0  0  0
   -8.1284    2.7801    0.0000 C   0  0  0
   -9.4360    2.0380    0.0000 C   0  0  0
   -9.4477    0.5537    0.0000 C   0  0  0
  -10.7436    2.8037    0.0000 C   0  0  0
  -10.7554   -0.1885    0.0000 C   0  0  0
  -12.0512    2.0615    0.0000 C   0  0  0
  -12.0630    0.5655    0.0000 C   0  0  0
  -13.3706   -0.1767    0.0000 C   0  0  0
  -14.6782    0.5772    0.0000 O   0  0  0
  -13.3823   -1.6610    0.0000 O   0  0  0
  1  2  1
  3  1  1  1  0
  2  4  2
  2  5  1
  3  6  1
  3  7  1
  4  8  1
  5  9  1
  5 10  1
  6 11  2
  6 12  1
 11 13  1
 12 14  2
 13 15  1
 13 16  2
 15 17  1
 15 18  1
 17 19  2
 18 20  2
 20 21  1
 21 22  2
 21 23  1
 22 24  1
 23 25  2
 24 26  2
 26 27  1
 27 28  2
 27 29  1
  8  9  2
 14 16  1
 19 20  1
 25 26  1
M  END
> <COMPOUND_NAMES>
Compound 81 (S) (Page No: 78, Table No: 2)

> <Reference>
WO 2021/021761 A1

> <IC50_range_nM>
>5000

> <smiles>
C[C@@H](c1cccc(c1)n1cc(c2ccc(cc2)C(O)=O)nn1)Sc1nncn1C

$$$$
C20H18N4OS
  MOLSOFT 03092310482D

 26 29  0  0  1  0  0  0  0  0999 V2000
    0.0000   -0.0000    0.0000 S   0  0  0
    0.8781    1.2340    0.0000 C   0  0  0
    0.6051   -1.3645    0.0000 C   0  0  2
    0.4034    2.6816    0.0000 N   0  0  0
    2.3731    1.2459    0.0000 N   0  0  0
   -0.2966   -2.5748    0.0000 C   0  0  0
    2.0883   -1.5069    0.0000 C   0  0  0
    1.6137    3.5834    0.0000 N   0  0  0
    2.8240    2.6935    0.0000 C   0  0  0
    3.2512    0.0356    0.0000 C   0  0  0
    0.3085   -3.9394    0.0000 C   0  0  0
   -1.8036   -2.4087    0.0000 C   0  0  0
   -0.5933   -5.1496    0.0000 C   0  0  0
   -2.7053   -3.6190    0.0000 C   0  0  0
    0.0119   -6.5142    0.0000 C   0  0  0
   -2.1002   -4.9835    0.0000 C   0  0  0
   -0.7475   -7.8075    0.0000 O   0  0  0
    1.4713   -6.8108    0.0000 C   0  0  0
    0.2492   -8.9110    0.0000 N   0  0  0
    1.6137   -8.2940    0.0000 C   0  0  0
    2.9071   -9.0415    0.0000 C   0  0  0
    4.2004   -8.2822    0.0000 C   0  0  0
    2.8952  -10.5366    0.0000 C   0  0  0
    5.4937   -9.0297    0.0000 C   0  0  0
    4.1885  -11.2723    0.0000 C   0  0  0
    5.4819  -10.5247    0.0000 C   0  0  0
  1  2  1
  3  1  1  1  0
  2  4  2
  2  5  1
  3  6  1
  3  7  1
  4  8  1
  5  9  1
  5 10  1
  6 11  2
  6 12  1
 11 13  1
 12 14  2
 13 15  1
 13 16  2
 15 17  1
 15 18  2
 17 19  1
 18 20  1
 20 21  1
 21 22  2
 21 23  1
 22 24  1
 23 25  2
 24 26  2
  8  9  2
 14 16  1
 19 20  2
 25 26  1
M  END
> <COMPOUND_NAMES>
Compound 67 (S) (Page No: 78, Table No: 2)

> <Reference>
WO 2021/021761 A1

> <IC50_range_nM>
1001-5000

> <smiles>
C[C@@H](c1cccc(c1)c1cc(c2ccccc2)no1)Sc1nncn1C

$$$$
C20H18N4OS
  MOLSOFT 03092310482D

 26 29  0  0  1  0  0  0  0  0999 V2000
    0.0000   -0.0000    0.0000 S   0  0  0
    0.8781    1.2340    0.0000 C   0  0  0
    0.6051   -1.3645    0.0000 C   0  0  1
    0.4034    2.6816    0.0000 N   0  0  0
    2.3731    1.2459    0.0000 N   0  0  0
   -0.2966   -2.5748    0.0000 C   0  0  0
    2.0883   -1.5069    0.0000 C   0  0  0
    1.6137    3.5834    0.0000 N   0  0  0
    2.8240    2.6935    0.0000 C   0  0  0
    3.2512    0.0356    0.0000 C   0  0  0
    0.3085   -3.9394    0.0000 C   0  0  0
   -1.8036   -2.4087    0.0000 C   0  0  0
   -0.5933   -5.1496    0.0000 C   0  0  0
   -2.7053   -3.6190    0.0000 C   0  0  0
    0.0119   -6.5142    0.0000 C   0  0  0
   -2.1002   -4.9835    0.0000 C   0  0  0
   -0.7475   -7.8075    0.0000 O   0  0  0
    1.4713   -6.8108    0.0000 C   0  0  0
    0.2492   -8.9110    0.0000 N   0  0  0
    1.6137   -8.2940    0.0000 C   0  0  0
    2.9071   -9.0415    0.0000 C   0  0  0
    4.2004   -8.2822    0.0000 C   0  0  0
    2.8952  -10.5366    0.0000 C   0  0  0
    5.4937   -9.0297    0.0000 C   0  0  0
    4.1885  -11.2723    0.0000 C   0  0  0
    5.4819  -10.5247    0.0000 C   0  0  0
  1  2  1
  3  1  1  6  0
  2  4  2
  2  5  1
  3  6  1
  3  7  1
  4  8  1
  5  9  1
  5 10  1
  6 11  2
  6 12  1
 11 13  1
 12 14  2
 13 15  1
 13 16  2
 15 17  1
 15 18  2
 17 19  1
 18 20  1
 20 21  1
 21 22  2
 21 23  1
 22 24  1
 23 25  2
 24 26  2
  8  9  2
 14 16  1
 19 20  2
 25 26  1
M  END
> <COMPOUND_NAMES>
Compound 68 (R) (Page No: 78, Table No: 2)

> <Reference>
WO 2021/021761 A1

> <IC50_range_nM>
>5000

> <smiles>
C[C@H](c1cccc(c1)c1cc(c2ccccc2)no1)Sc1nncn1C

$$$$
C21H20N4OS
  MOLSOFT 03092310482D

 27 30  0  0  1  0  0  0  0  0999 V2000
    0.0000   -0.0000    0.0000 S   0  0  0
    0.8783    1.2343    0.0000 C   0  0  0
    0.6053   -1.3649    0.0000 C   0  0  2
    0.4035    2.6823    0.0000 N   0  0  0
    2.3737    1.2462    0.0000 N   0  0  0
   -0.2967   -2.5754    0.0000 C   0  0  0
    2.0888   -1.5073    0.0000 C   0  0  0
    1.6141    3.5843    0.0000 N   0  0  0
    2.8247    2.6941    0.0000 C   0  0  0
    3.2519    0.0356    0.0000 C   0  0  0
    0.3086   -3.9403    0.0000 C   0  0  0
   -1.8040   -2.4093    0.0000 C   0  0  0
   -0.5934   -5.1509    0.0000 C   0  0  0
   -2.7060   -3.6199    0.0000 C   0  0  0
    0.0119   -6.5157    0.0000 C   0  0  0
   -2.1007   -4.9847    0.0000 C   0  0  0
   -0.7477   -7.8094    0.0000 O   0  0  0
    1.4717   -6.8125    0.0000 C   0  0  0
    0.2492   -8.9132    0.0000 N   0  0  0
    1.6141   -8.2960    0.0000 C   0  0  0
    2.9078   -9.0437    0.0000 C   0  0  0
    2.8959  -10.5391    0.0000 C   0  0  0
    4.2014   -8.2841    0.0000 C   0  0  0
    4.1895  -11.2750    0.0000 C   0  0  0
    5.4951   -9.0318    0.0000 C   0  0  0
    5.4832  -10.5154    0.0000 C   0  0  0
    4.1777  -12.7704    0.0000 C   0  0  0
  1  2  1
  3  1  1  1  0
  2  4  2
  2  5  1
  3  6  1
  3  7  1
  4  8  1
  5  9  1
  5 10  1
  6 11  2
  6 12  1
 11 13  1
 12 14  2
 13 15  1
 13 16  2
 15 17  1
 15 18  2
 17 19  1
 18 20  1
 20 21  1
 21 22  2
 21 23  1
 22 24  1
 23 25  2
 24 26  2
 24 27  1
  8  9  2
 14 16  1
 19 20  2
 25 26  1
M  END
> <COMPOUND_NAMES>
Compound 56 (S) (Page No: 77, Table No: 2)

> <Reference>
WO 2021/021761 A1

> <IC50_range_nM>
1001-5000

> <smiles>
Cc1cccc(c1)c1cc(c2cccc(c2)[C@H](C)Sc2nncn2C)on1

$$$$
C21H20N4OS
  MOLSOFT 03092310482D

 27 30  0  0  1  0  0  0  0  0999 V2000
    0.0000   -0.0000    0.0000 S   0  0  0
    0.8783    1.2343    0.0000 C   0  0  0
    0.6053   -1.3649    0.0000 C   0  0  2
    0.4035    2.6823    0.0000 N   0  0  0
    2.3737    1.2462    0.0000 N   0  0  0
   -0.2967   -2.5755    0.0000 C   0  0  0
    2.0889   -1.5073    0.0000 C   0  0  0
    1.6141    3.5844    0.0000 N   0  0  0
    2.8248    2.6942    0.0000 C   0  0  0
    3.2520    0.0356    0.0000 C   0  0  0
    0.3086   -3.9404    0.0000 C   0  0  0
   -1.8040   -2.4094    0.0000 C   0  0  0
   -0.5934   -5.1510    0.0000 C   0  0  0
   -2.7061   -3.6200    0.0000 C   0  0  0
    0.0119   -6.5159    0.0000 C   0  0  0
   -2.1008   -4.9849    0.0000 C   0  0  0
   -0.7477   -7.8096    0.0000 O   0  0  0
    1.4717   -6.8127    0.0000 C   0  0  0
    0.2492   -8.9134    0.0000 N   0  0  0
    1.6141   -8.2962    0.0000 C   0  0  0
    2.9078   -9.0440    0.0000 C   0  0  0
    4.2015   -8.2844    0.0000 C   0  0  0
    2.8960  -10.5394    0.0000 C   0  0  0
    5.4952   -9.0321    0.0000 C   0  0  0
    4.1897  -11.2753    0.0000 C   0  0  0
    5.4834  -10.5276    0.0000 C   0  0  0
    6.7770  -11.2634    0.0000 C   0  0  0
  1  2  1
  3  1  1  1  0
  2  4  2
  2  5  1
  3  6  1
  3  7  1
  4  8  1
  5  9  1
  5 10  1
  6 11  2
  6 12  1
 11 13  1
 12 14  2
 13 15  1
 13 16  2
 15 17  1
 15 18  2
 17 19  1
 18 20  1
 20 21  1
 21 22  2
 21 23  1
 22 24  1
 23 25  2
 24 26  2
 26 27  1
  8  9  2
 14 16  1
 19 20  2
 25 26  1
M  END
> <COMPOUND_NAMES>
Compound 55 (S) (Page No: 77, Table No: 2)

> <Reference>
WO 2021/021761 A1

> <IC50_range_nM>
1001-5000

> <smiles>
Cc1ccc(cc1)c1cc(c2cccc(c2)[C@H](C)Sc2nncn2C)on1

$$$$
C21H20N4O2S
  MOLSOFT 03092310482D

 28 31  0  0  1  0  0  0  0  0999 V2000
    0.0000   -0.0000    0.0000 S   0  0  0
    0.8784    1.2345    0.0000 C   0  0  0
    0.6054   -1.3650    0.0000 C   0  0  2
    0.4036    2.6826    0.0000 N   0  0  0
    2.3740    1.2463    0.0000 N   0  0  0
   -0.2967   -2.5758    0.0000 C   0  0  0
    2.0891   -1.5075    0.0000 C   0  0  0
    1.6143    3.5847    0.0000 N   0  0  0
    2.8250    2.6945    0.0000 C   0  0  0
    3.2523    0.0356    0.0000 C   0  0  0
    0.3086   -3.9408    0.0000 C   0  0  0
   -1.8042   -2.4096    0.0000 C   0  0  0
   -0.5935   -5.1515    0.0000 C   0  0  0
   -2.7063   -3.6203    0.0000 C   0  0  0
    0.0119   -6.5166    0.0000 C   0  0  0
   -2.1010   -4.9853    0.0000 C   0  0  0
   -0.7478   -7.8104    0.0000 O   0  0  0
    1.4719   -6.8133    0.0000 C   0  0  0
    0.2493   -8.9143    0.0000 N   0  0  0
    1.6143   -8.2970    0.0000 C   0  0  0
    2.9081   -9.0448    0.0000 C   0  0  0
    4.2019   -8.2852    0.0000 C   0  0  0
    2.8963  -10.5405    0.0000 C   0  0  0
    5.4958   -9.0330    0.0000 C   0  0  0
    4.1901  -11.2764    0.0000 C   0  0  0
    5.4839  -10.5286    0.0000 C   0  0  0
    6.7777  -11.2645    0.0000 C   0  0  0
    6.7658  -12.7601    0.0000 O   0  0  0
  1  2  1
  3  1  1  1  0
  2  4  2
  2  5  1
  3  6  1
  3  7  1
  4  8  1
  5  9  1
  5 10  1
  6 11  2
  6 12  1
 11 13  1
 12 14  2
 13 15  1
 13 16  2
 15 17  1
 15 18  2
 17 19  1
 18 20  1
 20 21  1
 21 22  2
 21 23  1
 22 24  1
 23 25  2
 24 26  2
 26 27  1
 27 28  1
  8  9  2
 14 16  1
 19 20  2
 25 26  1
M  END
> <COMPOUND_NAMES>
Compound 64 (S) (Page No: 77, Table No: 2)

> <Reference>
WO 2021/021761 A1

> <IC50_range_nM>
1001-5000

> <smiles>
C[C@@H](c1cccc(c1)c1cc(c2ccc(CO)cc2)no1)Sc1nncn1C

$$$$
C20H17ClN4OS
  MOLSOFT 03092310482D

 27 30  0  0  1  0  0  0  0  0999 V2000
    0.0000   -0.0000    0.0000 Cl  0  0  0
   -1.3061   -0.7413    0.0000 C   0  0  0
   -2.6121    0.0118    0.0000 C   0  0  0
   -1.3178   -2.2239    0.0000 C   0  0  0
   -3.9182   -0.7295    0.0000 C   0  0  0
   -2.6239   -2.9534    0.0000 C   0  0  0
   -5.2243    0.0235    0.0000 C   0  0  0
   -3.9300   -2.2121    0.0000 C   0  0  0
   -6.6010   -0.5766    0.0000 N   0  0  0
   -5.3890    1.5179    0.0000 C   0  0  0
   -7.6129    0.5413    0.0000 O   0  0  0
   -6.8598    1.8356    0.0000 C   0  0  0
   -7.4834    3.2122    0.0000 C   0  0  0
   -6.6127    4.4359    0.0000 C   0  0  0
   -8.9778    3.3770    0.0000 C   0  0  0
   -7.2363    5.8126    0.0000 C   0  0  0
   -9.6014    4.7536    0.0000 C   0  0  0
   -8.7307    5.9773    0.0000 C   0  0  0
   -6.3656    7.0363    0.0000 C   0  0  1
   -6.9892    8.4130    0.0000 S   0  0  0
   -4.8948    6.8951    0.0000 C   0  0  0
   -6.1185    9.6367    0.0000 C   0  0  0
   -6.5892   11.0722    0.0000 N   0  0  0
   -4.6360    9.6485    0.0000 N   0  0  0
   -5.3890   11.9664    0.0000 N   0  0  0
   -4.1888   11.0840    0.0000 C   0  0  0
   -3.7653    8.4483    0.0000 C   0  0  0
  1  2  1
  2  3  2
  2  4  1
  3  5  1
  4  6  2
  5  7  1
  5  8  2
  7  9  2
  7 10  1
  9 11  1
 10 12  2
 12 13  1
 13 14  2
 13 15  1
 14 16  1
 15 17  2
 16 18  2
 19 16  1
 19 20  1  1  0
 19 21  1
 20 22  1
 22 23  2
 22 24  1
 23 25  1
 24 26  1
 24 27  1
  6  8  1
 11 12  1
 17 18  1
 25 26  2
M  END
> <COMPOUND_NAMES>
Compound 58 (S) (Page No: 77, Table No: 2)

> <Reference>
WO 2021/021761 A1

> <IC50_range_nM>
1001-5000

> <smiles>
C[C@@H](c1cccc(c1)c1cc(c2cccc(c2)[Cl])no1)Sc1nncn1C

$$$$
C20H17ClN4OS
  MOLSOFT 03092310482D

 27 30  0  0  1  0  0  0  0  0999 V2000
    0.0000   -0.0000    0.0000 Cl  0  0  0
   -1.3047    0.7523    0.0000 C   0  0  0
   -1.3165    2.2568    0.0000 C   0  0  0
   -2.6094    0.0235    0.0000 C   0  0  0
   -2.6212    3.0091    0.0000 C   0  0  0
   -3.9141    0.7758    0.0000 C   0  0  0
   -3.9259    2.2685    0.0000 C   0  0  0
   -5.2306    3.0208    0.0000 C   0  0  0
   -6.6058    2.4214    0.0000 N   0  0  0
   -5.3951    4.5136    0.0000 C   0  0  0
   -7.6167    3.5380    0.0000 O   0  0  0
   -6.8644    4.8310    0.0000 C   0  0  0
   -7.4874    6.2062    0.0000 C   0  0  0
   -6.6176    7.4286    0.0000 C   0  0  0
   -8.9802    6.3707    0.0000 C   0  0  0
   -7.2405    8.8039    0.0000 C   0  0  0
   -9.6031    7.7460    0.0000 C   0  0  0
   -8.7333    8.9684    0.0000 C   0  0  0
   -6.3707   10.0263    0.0000 C   0  0  1
   -6.9937   11.4015    0.0000 S   0  0  0
   -4.9015    9.8852    0.0000 C   0  0  0
   -6.1239   12.6239    0.0000 C   0  0  0
   -6.5941   14.0580    0.0000 N   0  0  0
   -4.6429   12.6357    0.0000 N   0  0  0
   -5.3951   14.9513    0.0000 N   0  0  0
   -4.1962   14.0697    0.0000 C   0  0  0
   -3.7731   11.4368    0.0000 C   0  0  0
  1  2  1
  2  3  2
  2  4  1
  3  5  1
  4  6  2
  5  7  2
  7  8  1
  8  9  2
  8 10  1
  9 11  1
 10 12  2
 12 13  1
 13 14  2
 13 15  1
 14 16  1
 15 17  2
 16 18  2
 19 16  1
 19 20  1  1  0
 19 21  1
 20 22  1
 22 23  2
 22 24  1
 23 25  1
 24 26  1
 24 27  1
  6  7  1
 11 12  1
 17 18  1
 25 26  2
M  END
> <COMPOUND_NAMES>
Compound 57 (S) (Page No: 77, Table No: 2)

> <Reference>
WO 2021/021761 A1

> <IC50_range_nM>
1001-5000

> <smiles>
C[C@@H](c1cccc(c1)c1cc(c2ccc(cc2)[Cl])no1)Sc1nncn1C

$$$$
C21H17N5OS
  MOLSOFT 03092310482D

 28 31  0  0  1  0  0  0  0  0999 V2000
    0.0000   -0.0000    0.0000 S   0  0  0
   -1.4968    0.1650    0.0000 C   0  0  0
    0.8721    1.2257    0.0000 C   0  0  2
   -2.5103   -0.9311    0.0000 N   0  0  0
   -2.2510    1.4732    0.0000 N   0  0  0
    2.3453    1.0843    0.0000 C   0  0  0
    0.2475    2.6046    0.0000 C   0  0  0
   -3.8892   -0.3064    0.0000 N   0  0  0
   -3.7242    1.1785    0.0000 C   0  0  0
   -1.6500    2.8521    0.0000 C   0  0  0
    3.2174    2.3100    0.0000 C   0  0  0
    2.9464   -0.2711    0.0000 C   0  0  0
    4.6906    2.1685    0.0000 C   0  0  0
    4.4196   -0.4125    0.0000 C   0  0  0
    5.5627    3.3942    0.0000 C   0  0  0
    5.2917    0.8132    0.0000 C   0  0  0
    7.0477    3.4060    0.0000 O   0  0  0
    5.0913    4.8320    0.0000 C   0  0  0
    7.4956    4.8438    0.0000 N   0  0  0
    6.2934    5.7277    0.0000 C   0  0  0
    6.2817    7.2363    0.0000 C   0  0  0
    4.9735    7.9906    0.0000 C   0  0  0
    7.5663    7.9906    0.0000 C   0  0  0
    4.9617    9.4991    0.0000 C   0  0  0
    7.5545    9.4991    0.0000 C   0  0  0
    3.6535   10.2534    0.0000 C   0  0  0
    6.2463   10.2534    0.0000 C   0  0  0
    2.3453   11.0076    0.0000 N   0  0  0
  1  2  1
  3  1  1  1  0
  2  4  2
  2  5  1
  3  6  1
  3  7  1
  4  8  1
  5  9  1
  5 10  1
  6 11  2
  6 12  1
 11 13  1
 12 14  2
 13 15  1
 13 16  2
 15 17  1
 15 18  2
 17 19  1
 18 20  1
 20 21  1
 21 22  2
 21 23  1
 22 24  1
 23 25  2
 24 26  1
 24 27  2
 26 28  3
  8  9  2
 14 16  1
 19 20  2
 25 27  1
M  END
> <COMPOUND_NAMES>
Compound 62 (S) (Page No: 77, Table No: 2)

> <Reference>
WO 2021/021761 A1

> <IC50_range_nM>
1001-5000

> <smiles>
C[C@@H](c1cccc(c1)c1cc(c2cccc(C#N)c2)no1)Sc1nncn1C

$$$$
C21H17N5OS
  MOLSOFT 03092310482D

 28 31  0  0  1  0  0  0  0  0999 V2000
    0.0000   -0.0000    0.0000 S   0  0  0
   -0.8937   -1.1994    0.0000 C   0  0  0
   -0.6232    1.3758    0.0000 C   0  0  2
   -0.4469   -2.6106    0.0000 N   0  0  0
   -2.3989   -1.1877    0.0000 N   0  0  0
    0.2469    2.5988    0.0000 C   0  0  0
   -2.1167    1.5405    0.0000 C   0  0  0
   -1.6698   -3.4807    0.0000 N   0  0  0
   -2.8693   -2.5988    0.0000 C   0  0  0
   -3.2926    0.0353    0.0000 C   0  0  0
   -0.3763    3.9746    0.0000 C   0  0  0
    1.7169    2.4577    0.0000 C   0  0  0
    0.4939    5.1976    0.0000 C   0  0  0
    2.5870    3.6807    0.0000 C   0  0  0
   -0.1294    6.5734    0.0000 C   0  0  0
    1.9638    5.0565    0.0000 C   0  0  0
    0.5997    7.8787    0.0000 O   0  0  0
   -1.5993    6.8909    0.0000 C   0  0  0
   -0.4116    8.9958    0.0000 N   0  0  0
   -1.7639    8.3844    0.0000 C   0  0  0
   -3.0692    9.1370    0.0000 C   0  0  0
   -4.3745    8.4079    0.0000 C   0  0  0
   -3.0809   10.6421    0.0000 C   0  0  0
   -5.6797    9.1605    0.0000 C   0  0  0
   -4.3862   11.3947    0.0000 C   0  0  0
   -5.6915   10.6657    0.0000 C   0  0  0
   -6.9968   11.4183    0.0000 C   0  0  0
   -8.3020   12.1709    0.0000 N   0  0  0
  1  2  1
  3  1  1  1  0
  2  4  2
  2  5  1
  3  6  1
  3  7  1
  4  8  1
  5  9  1
  5 10  1
  6 11  2
  6 12  1
 11 13  1
 12 14  2
 13 15  1
 13 16  2
 15 17  1
 15 18  2
 17 19  1
 18 20  1
 20 21  1
 21 22  2
 21 23  1
 22 24  1
 23 25  2
 24 26  2
 26 27  1
 27 28  3
  8  9  2
 14 16  1
 19 20  2
 25 26  1
M  END
> <COMPOUND_NAMES>
Compound 61 (S) (Page No: 77, Table No: 2)

> <Reference>
WO 2021/021761 A1

> <IC50_range_nM>
1001-5000

> <smiles>
C[C@@H](c1cccc(c1)c1cc(c2ccc(C#N)cc2)no1)Sc1nncn1C

$$$$
C21H17F3N4OS
  MOLSOFT 03092310482D

 30 33  0  0  1  0  0  0  0  0999 V2000
    0.0000   -0.0000    0.0000 S   0  0  0
   -0.8937   -1.1994    0.0000 C   0  0  0
   -0.6232    1.3758    0.0000 C   0  0  2
   -0.4468   -2.6105    0.0000 N   0  0  0
   -2.3989   -1.1877    0.0000 N   0  0  0
    0.2469    2.5988    0.0000 C   0  0  0
   -2.1166    1.5404    0.0000 C   0  0  0
   -1.6698   -3.4807    0.0000 N   0  0  0
   -2.8692   -2.5988    0.0000 C   0  0  0
   -3.2926    0.0353    0.0000 C   0  0  0
   -0.3763    3.9746    0.0000 C   0  0  0
    1.7168    2.4577    0.0000 C   0  0  0
    0.4939    5.1975    0.0000 C   0  0  0
    2.5870    3.6806    0.0000 C   0  0  0
   -0.1294    6.5734    0.0000 C   0  0  0
    1.9638    5.0564    0.0000 C   0  0  0
    0.6115    7.8786    0.0000 O   0  0  0
   -1.5992    6.8909    0.0000 C   0  0  0
   -0.3998    8.9958    0.0000 N   0  0  0
   -1.7639    8.3843    0.0000 C   0  0  0
   -3.0691    9.1369    0.0000 C   0  0  0
   -3.0809   10.6420    0.0000 C   0  0  0
   -4.3744    8.4078    0.0000 C   0  0  0
   -4.3862   11.3946    0.0000 C   0  0  0
   -5.6797    9.1604    0.0000 C   0  0  0
   -5.6914   10.6656    0.0000 C   0  0  0
   -4.3979   12.8998    0.0000 C   0  0  0
   -4.4097   14.4050    0.0000 F   0  0  0
   -2.9163   12.9116    0.0000 F   0  0  0
   -5.9031   12.9116    0.0000 F   0  0  0
  1  2  1
  3  1  1  1  0
  2  4  2
  2  5  1
  3  6  1
  3  7  1
  4  8  1
  5  9  1
  5 10  1
  6 11  2
  6 12  1
 11 13  1
 12 14  2
 13 15  1
 13 16  2
 15 17  1
 15 18  2
 17 19  1
 18 20  1
 20 21  1
 21 22  2
 21 23  1
 22 24  1
 23 25  2
 24 26  2
 24 27  1
 27 28  1
 27 29  1
 27 30  1
  8  9  2
 14 16  1
 19 20  2
 25 26  1
M  END
> <COMPOUND_NAMES>
Compound 69 (Page No: 78, Table No: 1)

> <Reference>
WO 2021/021761 A1

> <IC50_range_nM>
1001-5000

> <smiles>
C[C@@H](c1cccc(c1)c1cc(c2cccc(c2)C(F)(F)F)no1)Sc1nncn1C

$$$$
C21H20N4O2S
  MOLSOFT 03092310482D

 28 31  0  0  1  0  0  0  0  0999 V2000
    0.0000   -0.0000    0.0000 S   0  0  0
   -0.3276   -1.4508    0.0000 C   0  0  0
    1.4157    0.4680    0.0000 C   0  0  2
    0.6552   -2.5505    0.0000 N   0  0  0
   -1.7081   -2.0474    0.0000 N   0  0  0
    1.7198    1.9421    0.0000 C   0  0  0
    2.5154   -0.5148    0.0000 C   0  0  0
   -0.1053   -3.8375    0.0000 N   0  0  0
   -1.5678   -3.5216    0.0000 C   0  0  0
   -3.0185   -1.2870    0.0000 C   0  0  0
    0.5967    2.9600    0.0000 C   0  0  0
    3.1238    2.4101    0.0000 C   0  0  0
    0.9009    4.4342    0.0000 C   0  0  0
    3.4280    3.8843    0.0000 C   0  0  0
   -0.2223    5.4520    0.0000 C   0  0  0
    2.3048    4.9139    0.0000 C   0  0  0
   -0.0819    6.9496    0.0000 O   0  0  0
   -1.6964    5.1478    0.0000 C   0  0  0
   -1.4625    7.5697    0.0000 N   0  0  0
   -2.4569    6.4582    0.0000 C   0  0  0
   -3.9545    6.6220    0.0000 C   0  0  0
   -4.5746    8.0026    0.0000 C   0  0  0
   -4.8437    5.4286    0.0000 C   0  0  0
   -6.0721    8.1664    0.0000 C   0  0  0
   -6.3412    5.5924    0.0000 C   0  0  0
   -6.9613    6.9730    0.0000 C   0  0  0
   -8.4589    7.1368    0.0000 O   0  0  0
   -9.3480    5.9434    0.0000 C   0  0  0
  1  2  1
  3  1  1  6  0
  2  4  2
  2  5  1
  3  6  1
  3  7  1
  4  8  1
  5  9  1
  5 10  1
  6 11  2
  6 12  1
 11 13  1
 12 14  2
 13 15  1
 13 16  2
 15 17  1
 15 18  2
 17 19  1
 18 20  1
 20 21  1
 21 22  2
 21 23  1
 22 24  1
 23 25  2
 24 26  2
 26 27  1
 27 28  1
  8  9  2
 14 16  1
 19 20  2
 25 26  1
M  END
> <COMPOUND_NAMES>
Compound 59 (S) (Page No: 77, Table No: 2)

> <Reference>
WO 2021/021761 A1

> <IC50_range_nM>
1001-5000

> <smiles>
C[C@@H](c1cccc(c1)c1cc(c2ccc(cc2)OC)no1)Sc1nncn1C

$$$$
C21H20N4O2S
  MOLSOFT 03092310482D

 28 31  0  0  1  0  0  0  0  0999 V2000
    0.0000   -0.0000    0.0000 S   0  0  0
   -0.3278   -1.4515    0.0000 C   0  0  0
    1.4164    0.4682    0.0000 C   0  0  2
    0.6555   -2.5518    0.0000 N   0  0  0
   -1.7090   -2.0485    0.0000 N   0  0  0
    1.7207    1.9431    0.0000 C   0  0  0
    2.5167   -0.5151    0.0000 C   0  0  0
   -0.1054   -3.8395    0.0000 N   0  0  0
   -1.5686   -3.5234    0.0000 C   0  0  0
   -3.0201   -1.2876    0.0000 C   0  0  0
    0.5970    2.9615    0.0000 C   0  0  0
    3.1254    2.4114    0.0000 C   0  0  0
    0.9013    4.4365    0.0000 C   0  0  0
    3.4298    3.8863    0.0000 C   0  0  0
   -0.2224    5.4548    0.0000 C   0  0  0
    2.3060    4.9164    0.0000 C   0  0  0
   -0.0819    6.9532    0.0000 O   0  0  0
   -1.6973    5.1505    0.0000 C   0  0  0
   -1.4632    7.5736    0.0000 N   0  0  0
   -2.4582    6.4615    0.0000 C   0  0  0
   -3.9565    6.6254    0.0000 C   0  0  0
   -4.8462    5.4314    0.0000 C   0  0  0
   -4.5769    8.0067    0.0000 C   0  0  0
   -6.3445    5.5953    0.0000 C   0  0  0
   -6.0752    8.1706    0.0000 C   0  0  0
   -7.2341    4.4013    0.0000 O   0  0  0
   -6.9649    6.9766    0.0000 C   0  0  0
   -6.6371    3.0435    0.0000 C   0  0  0
  1  2  1
  3  1  1  6  0
  2  4  2
  2  5  1
  3  6  1
  3  7  1
  4  8  1
  5  9  1
  5 10  1
  6 11  2
  6 12  1
 11 13  1
 12 14  2
 13 15  1
 13 16  2
 15 17  1
 15 18  2
 17 19  1
 18 20  1
 20 21  1
 21 22  2
 21 23  1
 22 24  1
 23 25  2
 24 26  1
 24 27  2
 26 28  1
  8  9  2
 14 16  1
 19 20  2
 25 27  1
M  END
> <COMPOUND_NAMES>
Compound 60 (S) (Page No: 77, Table No: 2)

> <Reference>
WO 2021/021761 A1

> <IC50_range_nM>
1001-5000

> <smiles>
C[C@@H](c1cccc(c1)c1cc(c2cccc(c2)OC)no1)Sc1nncn1C

$$$$
C22H21N5O2S
  MOLSOFT 03092310482D

 30 33  0  0  1  0  0  0  0  0999 V2000
    0.0000   -0.0000    0.0000 S   0  0  0
   -0.3277   -1.4512    0.0000 C   0  0  0
    1.4044    0.4681    0.0000 C   0  0  2
    0.6554   -2.5513    0.0000 N   0  0  0
   -1.7087   -2.0480    0.0000 N   0  0  0
    1.7087    1.9427    0.0000 C   0  0  0
    2.5045   -0.5149    0.0000 C   0  0  0
   -0.1053   -3.8386    0.0000 N   0  0  0
   -1.5682   -3.5226    0.0000 C   0  0  0
   -3.0194   -1.2873    0.0000 C   0  0  0
    0.5852    2.9492    0.0000 C   0  0  0
    3.1130    2.4108    0.0000 C   0  0  0
    0.8894    4.4238    0.0000 C   0  0  0
    3.4173    3.8854    0.0000 C   0  0  0
   -0.2341    5.4303    0.0000 C   0  0  0
    2.2938    4.9036    0.0000 C   0  0  0
   -0.0936    6.9283    0.0000 O   0  0  0
   -1.7087    5.1260    0.0000 C   0  0  0
   -1.4746    7.5485    0.0000 N   0  0  0
   -2.4694    6.4367    0.0000 C   0  0  0
   -3.9674    6.6006    0.0000 C   0  0  0
   -4.5876    7.9815    0.0000 C   0  0  0
   -4.8568    5.4069    0.0000 C   0  0  0
   -6.0856    8.1454    0.0000 C   0  0  0
   -6.3548    5.5707    0.0000 C   0  0  0
   -6.9751    6.9517    0.0000 C   0  0  0
   -8.4731    7.1155    0.0000 C   0  0  0
   -9.0933    8.4965    0.0000 O   0  0  0
   -9.3625    5.9218    0.0000 N   0  0  0
  -10.8605    6.0856    0.0000 C   0  0  0
  1  2  1
  3  1  1  6  0
  2  4  2
  2  5  1
  3  6  1
  3  7  1
  4  8  1
  5  9  1
  5 10  1
  6 11  2
  6 12  1
 11 13  1
 12 14  2
 13 15  1
 13 16  2
 15 17  1
 15 18  2
 17 19  1
 18 20  1
 20 21  1
 21 22  2
 21 23  1
 22 24  1
 23 25  2
 24 26  2
 26 27  1
 27 28  2
 27 29  1
 29 30  1
  8  9  2
 14 16  1
 19 20  2
 25 26  1
M  END
> <COMPOUND_NAMES>
Compound 65 (S) (Page No: 77, Table No: 2)

> <Reference>
WO 2021/021761 A1

> <IC50_range_nM>
1001-5000

> <smiles>
C[C@@H](c1cccc(c1)c1cc(c2ccc(cc2)C(NC)=O)no1)Sc1nncn1C

$$$$
C21H18N4O3S
  MOLSOFT 03092310482D

 29 32  0  0  1  0  0  0  0  0999 V2000
    0.0000   -0.0000    0.0000 S   0  0  0
    0.6008   -1.3547    0.0000 C   0  0  0
   -1.4961    0.1649    0.0000 C   0  0  2
    2.0498   -1.6492    0.0000 N   0  0  0
   -0.1649   -2.6388    0.0000 N   0  0  0
   -2.1204    1.5432    0.0000 C   0  0  0
   -2.3914   -1.0367    0.0000 C   0  0  0
    2.1911   -3.1218    0.0000 N   0  0  0
    0.8246   -3.7343    0.0000 C   0  0  0
   -1.6610   -2.7801    0.0000 C   0  0  0
   -3.6165    1.7081    0.0000 C   0  0  0
   -1.2487    2.7684    0.0000 C   0  0  0
   -4.2409    3.0864    0.0000 C   0  0  0
   -1.8731    4.1466    0.0000 C   0  0  0
   -5.7370    3.2513    0.0000 C   0  0  0
   -3.3691    4.3116    0.0000 C   0  0  0
   -6.4909    4.5589    0.0000 O   0  0  0
   -6.7501    2.1558    0.0000 C   0  0  0
   -7.9634    4.2644    0.0000 N   0  0  0
   -8.1284    2.7801    0.0000 C   0  0  0
   -9.4360    2.0380    0.0000 C   0  0  0
   -9.4477    0.5537    0.0000 C   0  0  0
  -10.7436    2.8037    0.0000 C   0  0  0
  -10.7554   -0.1885    0.0000 C   0  0  0
  -12.0512    2.0615    0.0000 C   0  0  0
  -12.0630    0.5655    0.0000 C   0  0  0
  -13.3706   -0.1767    0.0000 C   0  0  0
  -14.6782    0.5772    0.0000 O   0  0  0
  -13.3823   -1.6610    0.0000 O   0  0  0
  1  2  1
  3  1  1  1  0
  2  4  2
  2  5  1
  3  6  1
  3  7  1
  4  8  1
  5  9  1
  5 10  1
  6 11  2
  6 12  1
 11 13  1
 12 14  2
 13 15  1
 13 16  2
 15 17  1
 15 18  2
 17 19  1
 18 20  1
 20 21  1
 21 22  2
 21 23  1
 22 24  1
 23 25  2
 24 26  2
 26 27  1
 27 28  2
 27 29  1
  8  9  2
 14 16  1
 19 20  2
 25 26  1
M  END
> <COMPOUND_NAMES>
Compound 63 (S) (Page No: 77, Table No: 2)

> <Reference>
WO 2021/021761 A1

> <IC50_range_nM>
>5000

> <smiles>
C[C@@H](c1cccc(c1)c1cc(c2ccc(cc2)C(O)=O)no1)Sc1nncn1C

$$$$
C21H20N4O3S2
  MOLSOFT 03092310482D

 30 33  0  0  1  0  0  0  0  0999 V2000
    0.0000   -0.0000    0.0000 S   0  0  0
    1.4885    0.0118    0.0000 O   0  0  0
   -1.5121    0.0118    0.0000 O   0  0  0
   -0.0118   -1.4885    0.0000 C   0  0  0
   -0.0118    1.5121    0.0000 C   0  0  0
   -1.3231   -2.2209    0.0000 C   0  0  0
    1.2758   -2.2209    0.0000 C   0  0  0
   -1.3349   -3.7094    0.0000 C   0  0  0
    1.2640   -3.7094    0.0000 C   0  0  0
   -0.0473   -4.4418    0.0000 C   0  0  0
   -0.0591   -5.9303    0.0000 C   0  0  0
    1.1459   -6.8045    0.0000 N   0  0  0
   -1.2877   -6.8045    0.0000 C   0  0  0
    0.6734   -8.2221    0.0000 O   0  0  0
   -0.8387   -8.2221    0.0000 C   0  0  0
   -1.7366   -9.4270    0.0000 C   0  0  0
   -3.2369   -9.2616    0.0000 C   0  0  0
   -1.1341  -10.7856    0.0000 C   0  0  0
   -4.1347  -10.4666    0.0000 C   0  0  0
   -2.0319  -11.9905    0.0000 C   0  0  0
   -3.5322  -11.8251    0.0000 C   0  0  0
   -5.6350  -10.3012    0.0000 C   0  0  1
   -6.5328  -11.5062    0.0000 S   0  0  0
   -6.2611   -8.9191    0.0000 C   0  0  0
   -8.0331  -11.3408    0.0000 C   0  0  0
   -9.0490  -12.4394    0.0000 N   0  0  0
   -8.7891  -10.0295    0.0000 N   0  0  0
  -10.4312  -11.8133    0.0000 N   0  0  0
  -10.2658  -10.3248    0.0000 C   0  0  0
   -8.1866   -8.6474    0.0000 C   0  0  0
  1  2  2
  1  3  2
  1  4  1
  1  5  1
  4  6  2
  4  7  1
  6  8  1
  7  9  2
  8 10  2
 10 11  1
 11 12  2
 11 13  1
 12 14  1
 13 15  2
 15 16  1
 16 17  2
 16 18  1
 17 19  1
 18 20  2
 19 21  2
 22 19  1
 22 23  1  1  0
 22 24  1
 23 25  1
 25 26  2
 25 27  1
 26 28  1
 27 29  1
 27 30  1
  9 10  1
 14 15  1
 20 21  1
 28 29  2
M  END
> <COMPOUND_NAMES>
Compound 66 (S) (Page No: 77, Table No: 2)

> <Reference>
WO 2021/021761 A1

> <IC50_range_nM>
>5000

> <smiles>
C[C@@H](c1cccc(c1)c1cc(c2ccc(cc2)S(C)(=O)=O)no1)Sc1nncn1C

$$$$
C19H17N5OS
  MOLSOFT 03092310482D

 26 29  0  0  1  0  0  0  0  0999 V2000
    0.0000   -0.0000    0.0000 S   0  0  0
    0.8782    1.2342    0.0000 C   0  0  0
    0.6052   -1.3647    0.0000 C   0  0  2
    0.4035    2.6820    0.0000 N   0  0  0
    2.3734    1.2461    0.0000 N   0  0  0
   -0.2967   -2.5752    0.0000 C   0  0  0
    2.0886   -1.5071    0.0000 C   0  0  0
    1.6139    3.5839    0.0000 N   0  0  0
    2.8244    2.6938    0.0000 C   0  0  0
    3.2516    0.0356    0.0000 C   0  0  0
    0.3085   -3.9399    0.0000 C   0  0  0
   -1.8038   -2.4090    0.0000 C   0  0  0
   -0.5934   -5.1503    0.0000 C   0  0  0
   -2.7057   -3.6195    0.0000 C   0  0  0
    0.0119   -6.5151    0.0000 C   0  0  0
   -2.1005   -4.9842    0.0000 C   0  0  0
   -0.7476   -7.8086    0.0000 O   0  0  0
    1.4715   -6.8117    0.0000 C   0  0  0
    0.2492   -8.9122    0.0000 N   0  0  0
    1.6139   -8.2951    0.0000 C   0  0  0
    2.9075   -9.0428    0.0000 C   0  0  0
    2.8956  -10.5380    0.0000 N   0  0  0
    4.2010   -8.2833    0.0000 C   0  0  0
    4.1891  -11.2738    0.0000 C   0  0  0
    5.4945   -9.0309    0.0000 C   0  0  0
    5.4826  -10.5143    0.0000 C   0  0  0
  1  2  1
  3  1  1  1  0
  2  4  2
  2  5  1
  3  6  1
  3  7  1
  4  8  1
  5  9  1
  5 10  1
  6 11  2
  6 12  1
 11 13  1
 12 14  2
 13 15  1
 13 16  2
 15 17  1
 15 18  2
 17 19  1
 18 20  1
 20 21  1
 21 22  2
 21 23  1
 22 24  1
 23 25  2
 24 26  2
  8  9  2
 14 16  1
 19 20  2
 25 26  1
M  END
> <COMPOUND_NAMES>
Compound 70 (Page No: 78, Table No: 2)

> <Reference>
WO 2021/021761 A1

> <IC50_range_nM>
>5000

> <smiles>
C[C@@H](c1cccc(c1)c1cc(c2ccccn2)no1)Sc1nncn1C

$$$$
C19H17N5OS
  MOLSOFT 03092310482D

 26 29  0  0  1  0  0  0  0  0999 V2000
    0.0000   -0.0000    0.0000 S   0  0  0
    0.8781    1.2340    0.0000 C   0  0  0
    0.6051   -1.3645    0.0000 C   0  0  2
    0.4034    2.6816    0.0000 N   0  0  0
    2.3731    1.2459    0.0000 N   0  0  0
   -0.2966   -2.5748    0.0000 C   0  0  0
    2.0883   -1.5069    0.0000 C   0  0  0
    1.6137    3.5834    0.0000 N   0  0  0
    2.8240    2.6935    0.0000 C   0  0  0
    3.2512    0.0356    0.0000 C   0  0  0
    0.3085   -3.9394    0.0000 C   0  0  0
   -1.8036   -2.4087    0.0000 C   0  0  0
   -0.5933   -5.1496    0.0000 C   0  0  0
   -2.7053   -3.6190    0.0000 C   0  0  0
   -2.1002   -4.9835    0.0000 N   0  0  0
    0.0119   -6.5142    0.0000 C   0  0  0
   -0.7475   -7.8075    0.0000 O   0  0  0
    1.4713   -6.8108    0.0000 C   0  0  0
    0.2492   -8.9110    0.0000 N   0  0  0
    1.6137   -8.2940    0.0000 C   0  0  0
    2.9071   -9.0415    0.0000 C   0  0  0
    4.2004   -8.2822    0.0000 C   0  0  0
    2.8952  -10.5366    0.0000 C   0  0  0
    5.4937   -9.0297    0.0000 C   0  0  0
    4.1885  -11.2723    0.0000 C   0  0  0
    5.4819  -10.5247    0.0000 C   0  0  0
  1  2  1
  3  1  1  1  0
  2  4  2
  2  5  1
  3  6  1
  3  7  1
  4  8  1
  5  9  1
  5 10  1
  6 11  2
  6 12  1
 11 13  1
 12 14  2
 13 15  2
 13 16  1
 16 17  1
 16 18  2
 17 19  1
 18 20  1
 20 21  1
 21 22  2
 21 23  1
 22 24  1
 23 25  2
 24 26  2
  8  9  2
 14 15  1
 19 20  2
 25 26  1
M  END
> <COMPOUND_NAMES>
Compound 71 (Page No: 78, Table No: 2)

> <Reference>
WO 2021/021761 A1

> <IC50_range_nM>
>5000

> <smiles>
C[C@@H](c1ccnc(c1)c1cc(c2ccccc2)no1)Sc1nncn1C

$$$$
C20H20N6
  MOLSOFT 03092310482D

 26 29  0  0  1  0  0  0  0  0999 V2000
    0.0000   -0.0000    0.0000 N   0  0  0
   -0.0118    1.5076    0.0000 C   0  0  0
    1.2838   -0.7302    0.0000 C   0  0  0
   -1.3191    2.2613    0.0000 C   0  0  0
    1.2720    2.2613    0.0000 C   0  0  0
    2.5676    0.0236    0.0000 C   0  0  0
   -2.6971    1.6607    0.0000 N   0  0  0
   -1.4840    3.7571    0.0000 C   0  0  0
    2.5558    1.5193    0.0000 C   0  0  0
   -3.7100    2.7796    0.0000 N   0  0  0
   -2.9562    4.0751    0.0000 C   0  0  0
   -3.5805    5.4531    0.0000 C   0  0  0
   -2.7089    6.6780    0.0000 C   0  0  0
   -5.0763    5.6180    0.0000 C   0  0  0
   -3.3331    8.0560    0.0000 C   0  0  0
   -5.7005    6.9960    0.0000 C   0  0  0
   -4.8289    8.2209    0.0000 C   0  0  0
   -2.4616    9.2809    0.0000 C   0  0  1
   -3.0858   10.6590    0.0000 C   0  0  0
   -0.9893    9.1396    0.0000 C   0  0  0
   -2.2142   11.8838    0.0000 C   0  0  0
   -2.6853   13.3207    0.0000 N   0  0  0
   -0.7302   11.8956    0.0000 N   0  0  0
   -1.4840   14.2159    0.0000 N   0  0  0
   -0.2827   13.3325    0.0000 C   0  0  0
    0.1413   10.6943    0.0000 C   0  0  0
  1  2  2
  1  3  1
  2  4  1
  2  5  1
  3  6  2
  4  7  2
  4  8  1
  5  9  2
  7 10  1
  8 11  2
 11 12  1
 12 13  2
 12 14  1
 13 15  1
 14 16  2
 15 17  2
 18 15  1
 18 19  1
 18 20  1  1  0
 19 21  1
 21 22  2
 21 23  1
 22 24  1
 23 25  1
 23 26  1
  6  9  1
 10 11  1
 16 17  1
 24 25  2
M  END
> <COMPOUND_NAMES>
Compound 105 (R) (Page No: 79, Table No: 2)

> <Reference>
WO 2021/021761 A1

> <IC50_range_nM>
101-1000

> <smiles>
C[C@H](Cc1nncn1C)c1cccc(c1)c1cc(c2ccccn2)n[nH]1

$$$$
C19H19N7
  MOLSOFT 03092310482D

 26 29  0  0  1  0  0  0  0  0999 V2000
    0.0000   -0.0000    0.0000 N   0  0  0
   -1.3077   -0.7422    0.0000 C   0  0  0
    1.2841   -0.7422    0.0000 C   0  0  0
   -1.3195   -2.2266    0.0000 N   0  0  0
   -2.6154    0.0118    0.0000 C   0  0  0
    1.2724   -2.2266    0.0000 C   0  0  0
   -0.0353   -2.9571    0.0000 C   0  0  0
   -3.9938   -0.5891    0.0000 N   0  0  0
   -2.7803    1.5080    0.0000 C   0  0  0
   -5.0070    0.5302    0.0000 N   0  0  0
   -4.2530    1.8261    0.0000 C   0  0  0
   -4.8774    3.2045    0.0000 C   0  0  0
   -4.0056    4.4297    0.0000 C   0  0  0
   -6.3736    3.3694    0.0000 C   0  0  0
   -4.6300    5.8081    0.0000 C   0  0  0
   -6.9980    4.7478    0.0000 C   0  0  0
   -6.1262    5.9730    0.0000 C   0  0  0
   -3.7582    7.0333    0.0000 C   0  0  1
   -4.3826    8.4117    0.0000 C   0  0  0
   -2.2855    6.8920    0.0000 C   0  0  0
   -3.5108    9.6370    0.0000 C   0  0  0
   -3.9820   11.0743    0.0000 N   0  0  0
   -2.0264    9.6487    0.0000 N   0  0  0
   -2.7803   11.9696    0.0000 N   0  0  0
   -1.5787   11.0860    0.0000 C   0  0  0
   -1.1545    8.4471    0.0000 C   0  0  0
  1  2  2
  1  3  1
  2  4  1
  2  5  1
  3  6  2
  4  7  2
  5  8  2
  5  9  1
  8 10  1
  9 11  2
 11 12  1
 12 13  2
 12 14  1
 13 15  1
 14 16  2
 15 17  2
 18 15  1
 18 19  1
 18 20  1  1  0
 19 21  1
 21 22  2
 21 23  1
 22 24  1
 23 25  1
 23 26  1
  6  7  1
 10 11  1
 16 17  1
 24 25  2
M  END
> <COMPOUND_NAMES>
Compound 106 (R) (Page No: 79, Table No: 5)

> <Reference>
WO 2021/021761 A1

> <IC50_range_nM>
101-1000

> <smiles>
C[C@H](Cc1nncn1C)c1cccc(c1)c1cc(c2ncccn2)n[nH]1

$$$$
C19H17F3N6
  MOLSOFT 03092310482D

 28 31  0  0  1  0  0  0  0  0999 V2000
    0.0000   -0.0000    0.0000 F   0  0  0
   -0.0118   -1.4871    0.0000 C   0  0  0
    1.4753   -1.4753    0.0000 F   0  0  0
   -1.5225   -1.4753    0.0000 F   0  0  0
   -0.0236   -2.9741    0.0000 C   0  0  0
   -1.3336   -3.7059    0.0000 N   0  0  0
    1.2628   -3.7059    0.0000 C   0  0  0
   -1.3454   -5.1930    0.0000 C   0  0  0
    1.2510   -5.1930    0.0000 C   0  0  0
   -2.4667   -6.1843    0.0000 C   0  0  0
   -0.0590   -5.9247    0.0000 C   0  0  0
   -1.8647   -7.5416    0.0000 N   0  0  0
   -3.9419   -5.8657    0.0000 C   0  0  0
   -0.3777   -7.3764    0.0000 N   0  0  0
   -4.4140   -4.4258    0.0000 C   0  0  0
   -4.9569   -6.9633    0.0000 C   0  0  0
   -5.8893   -4.1072    0.0000 C   0  0  0
   -6.4322   -6.6446    0.0000 C   0  0  0
   -6.9043   -5.2048    0.0000 C   0  0  0
   -6.3614   -2.6673    0.0000 C   0  0  1
   -7.8366   -2.3486    0.0000 C   0  0  0
   -5.3700   -1.5461    0.0000 C   0  0  0
   -8.3087   -0.9088    0.0000 C   0  0  0
   -9.7486   -0.4367    0.0000 N   0  0  0
   -7.4354    0.3187    0.0000 N   0  0  0
   -9.7604    1.0740    0.0000 N   0  0  0
   -8.3323    1.5461    0.0000 C   0  0  0
   -5.9483    0.3305    0.0000 C   0  0  0
  1  2  1
  2  3  1
  2  4  1
  2  5  1
  5  6  2
  5  7  1
  6  8  1
  7  9  2
  8 10  2
  8 11  1
 10 12  1
 10 13  1
 11 14  2
 13 15  2
 13 16  1
 15 17  1
 16 18  2
 17 19  2
 20 17  1
 20 21  1
 20 22  1  1  0
 21 23  1
 23 24  2
 23 25  1
 24 26  1
 25 27  1
 25 28  1
  9 11  1
 12 14  1
 18 19  1
 26 27  2
M  END
> <COMPOUND_NAMES>
Compound 116 (R) (Page No: 80, Table No: 2)

> <Reference>
WO 2021/021761 A1

> <IC50_range_nM>
101-1000

> <smiles>
C[C@H](Cc1nncn1C)c1cccc(c1)c1c2c(ccc(C(F)(F)F)n2)n[nH]1

$$$$
C[C@H](CC1=NN=CN1C)C1=CC(=CC=C1)C1=NNC2=C1N=CC=C2
  MOLSOFT 03092310482D

 24 27  0  0  1  0  0  0  0  0999 V2000
    0.0000   -0.0000    0.0000 N   0  0  0
   -1.3127    0.7687    0.0000 C   0  0  0
   -0.0118   -1.4901    0.0000 C   0  0  0
   -1.6320    2.2469    0.0000 C   0  0  0
   -2.6254    0.0237    0.0000 C   0  0  0
   -1.3245   -2.2351    0.0000 C   0  0  0
   -3.1339    2.4125    0.0000 N   0  0  0
   -0.6386    3.3704    0.0000 C   0  0  0
   -3.7488    1.0407    0.0000 N   0  0  0
   -2.6372   -1.4664    0.0000 C   0  0  0
    0.8160    3.0748    0.0000 C   0  0  0
   -1.1116    4.8132    0.0000 C   0  0  0
    1.8094    4.1982    0.0000 C   0  0  0
   -0.1183    5.9367    0.0000 C   0  0  0
    1.3363    5.6410    0.0000 C   0  0  0
    3.2640    3.9026    0.0000 C   0  0  1
    4.2574    5.0261    0.0000 C   0  0  0
    3.7134    2.4835    0.0000 C   0  0  0
    5.7120    4.7304    0.0000 C   0  0  0
    6.8118    5.7474    0.0000 N   0  0  0
    6.3151    3.3704    0.0000 N   0  0  0
    8.1008    5.0024    0.0000 N   0  0  0
    7.7933    3.5360    0.0000 C   0  0  0
    5.5582    2.0814    0.0000 C   0  0  0
  1  2  2
  1  3  1
  2  4  1
  2  5  1
  3  6  2
  4  7  2
  4  8  1
  5  9  1
  5 10  2
  8 11  2
  8 12  1
 11 13  1
 12 14  2
 13 15  2
 16 13  1
 16 17  1
 16 18  1  1  0
 17 19  1
 19 20  2
 19 21  1
 20 22  1
 21 23  1
 21 24  1
  6 10  1
  7  9  1
 14 15  1
 22 23  2
M  END
> <COMPOUND_NAMES>
Compound 118 (R) (Page No: 80, Table No: 2)

> <Reference>
WO 2021/021761 A1

> <IC50_range_nM>
1001-5000

> <smiles>
C[C@H](Cc1nncn1C)c1cccc(c1)c1c2c(cccn2)[nH]n1

$$$$
C19H20N6
  MOLSOFT 03092310482D

 25 28  0  0  1  0  0  0  0  0999 V2000
    0.0000   -0.0000    0.0000 N   0  0  0
   -0.0118   -1.4905    0.0000 C   0  0  0
   -1.3130    0.7689    0.0000 C   0  0  0
   -1.3249   -2.2357    0.0000 C   0  0  0
    1.2775   -2.2357    0.0000 C   0  0  0
   -1.6324    2.2475    0.0000 C   0  0  0
   -2.6261    0.0237    0.0000 C   0  0  0
   -2.6379   -1.4668    0.0000 C   0  0  0
   -3.1347    2.4131    0.0000 N   0  0  0
   -0.6388    3.3713    0.0000 C   0  0  0
   -3.7498    1.0410    0.0000 N   0  0  0
    0.8162    3.0756    0.0000 C   0  0  0
   -1.1119    4.8145    0.0000 C   0  0  0
    1.8099    4.1993    0.0000 C   0  0  0
   -0.1183    5.9382    0.0000 C   0  0  0
    1.3367    5.6425    0.0000 C   0  0  0
    3.2648    3.9036    0.0000 C   0  0  1
    4.2585    5.0274    0.0000 C   0  0  0
    3.7144    2.4841    0.0000 C   0  0  0
    5.7135    4.7317    0.0000 C   0  0  0
    6.8136    5.7490    0.0000 N   0  0  0
    6.3168    3.3713    0.0000 N   0  0  0
    8.1030    5.0037    0.0000 N   0  0  0
    7.7954    3.5369    0.0000 C   0  0  0
    5.5597    2.0819    0.0000 C   0  0  0
  1  2  2
  1  3  1
  2  4  1
  2  5  1
  3  6  1
  3  7  2
  4  8  2
  6  9  2
  6 10  1
  7 11  1
 10 12  2
 10 13  1
 12 14  1
 13 15  2
 14 16  2
 17 14  1
 17 18  1
 17 19  1  1  0
 18 20  1
 20 21  2
 20 22  1
 21 23  1
 22 24  1
 22 25  1
  7  8  1
  9 11  1
 15 16  1
 23 24  2
M  END
> <COMPOUND_NAMES>
Compound 119 (R) (Page No: 80, Table No: 2)

> <Reference>
WO 2021/021761 A1

> <IC50_range_nM>
1001-5000

> <smiles>
Cc1ccc2c(c(c3cccc(c3)[C@H](C)Cc3nncn3C)n[nH]2)n1

$$$$
C22H24N6
  MOLSOFT 03092310482D

 28 32  0  0  1  0  0  0  0  0999 V2000
    0.0000   -0.0000    0.0000 N   0  0  0
   -0.4013    1.4634    0.0000 C   0  0  0
   -1.0740   -1.0504    0.0000 C   0  0  0
    0.4013    2.7380    0.0000 C   0  0  0
   -1.8647    1.8647    0.0000 C   0  0  0
   -2.5374   -0.6491    0.0000 C   0  0  0
   -0.5547    3.9182    0.0000 N   0  0  0
    1.8883    2.8325    0.0000 C   0  0  0
   -1.9591    3.3753    0.0000 N   0  0  0
   -2.9387    0.8143    0.0000 C   0  0  0
   -3.6114   -1.6995    0.0000 C   0  0  0
    2.6908    1.5815    0.0000 C   0  0  0
    2.5610    4.1779    0.0000 C   0  0  0
   -3.6232   -3.1865    0.0000 C   0  0  0
   -5.1220   -1.6877    0.0000 C   0  0  0
    4.1779    1.6759    0.0000 C   0  0  0
    4.0481    4.2723    0.0000 C   0  0  0
   -5.1338   -3.1747    0.0000 C   0  0  0
    4.8506    3.0213    0.0000 C   0  0  0
    4.9804    0.4249    0.0000 C   0  0  1
    6.4675    0.5193    0.0000 C   0  0  0
    4.2841   -0.8969    0.0000 C   0  0  0
    7.2700   -0.7317    0.0000 C   0  0  0
    8.7570   -0.8025    0.0000 N   0  0  0
    6.7153   -2.1243    0.0000 N   0  0  0
    9.1347   -2.2424    0.0000 N   0  0  0
    7.8719   -3.0567    0.0000 C   0  0  0
    5.2519   -2.5020    0.0000 C   0  0  0
  1  2  2
  1  3  1
  2  4  1
  2  5  1
  3  6  2
  4  7  2
  4  8  1
  5  9  1
  5 10  2
  6 11  1
  8 12  2
  8 13  1
 11 14  1
 11 15  1
 12 16  1
 13 17  2
 14 18  1
 16 19  2
 20 16  1
 20 21  1
 20 22  1  1  0
 21 23  1
 23 24  2
 23 25  1
 24 26  1
 25 27  1
 25 28  1
  6 10  1
  7  9  1
 15 18  1
 17 19  1
 26 27  2
M  END
> <COMPOUND_NAMES>
Compound 120 (R) (Page No: 80, Table No: 2)

> <Reference>
WO 2021/021761 A1

> <IC50_range_nM>
1001-5000

> <smiles>
C[C@H](Cc1nncn1C)c1cccc(c1)c1c2c(cc(cn2)C2CCC2)[nH]n1

$$$$
C22H22F3N7O
  MOLSOFT 03092310482D

 33 37  0  0  1  0  0  0  0  0999 V2000
    0.0000   -0.0000    0.0000 F   0  0  0
   -0.0118   -1.4890    0.0000 C   0  0  0
    1.4772   -1.4772    0.0000 F   0  0  0
   -1.5245   -1.4772    0.0000 F   0  0  0
   -0.0236   -2.9781    0.0000 C   0  0  0
   -1.3354   -3.7108    0.0000 N   0  0  0
    1.2645   -3.7108    0.0000 C   0  0  0
   -1.3472   -5.1998    0.0000 C   0  0  0
    1.2527   -5.1998    0.0000 C   0  0  0
   -0.0591   -5.9325    0.0000 C   0  0  0
   -2.4699   -6.1925    0.0000 C   0  0  0
    2.5408   -5.9325    0.0000 N   0  0  0
   -0.3782   -7.3861    0.0000 N   0  0  0
   -1.8672   -7.5516    0.0000 N   0  0  0
   -3.9471   -5.8735    0.0000 C   0  0  0
    3.9826   -5.5307    0.0000 C   0  0  0
    2.9190   -7.3743    0.0000 C   0  0  0
   -4.4199   -4.4317    0.0000 C   0  0  0
   -4.9635   -6.9725    0.0000 C   0  0  0
    4.3608   -6.9725    0.0000 C   0  0  0
   -5.8971   -4.1126    0.0000 C   0  0  0
   -6.4407   -6.6534    0.0000 C   0  0  0
    5.6489   -7.7052    0.0000 O   0  0  0
   -6.9134   -5.2117    0.0000 C   0  0  0
   -6.3698   -2.6708    0.0000 C   0  0  1
   -7.8470   -2.3517    0.0000 C   0  0  0
   -5.3771   -1.5481    0.0000 C   0  0  0
   -8.3197   -0.9100    0.0000 C   0  0  0
   -9.7615   -0.4373    0.0000 N   0  0  0
   -7.4452    0.3191    0.0000 N   0  0  0
   -9.7733    1.0754    0.0000 N   0  0  0
   -8.3434    1.5481    0.0000 C   0  0  0
   -5.9562    0.3309    0.0000 C   0  0  0
  1  2  1
  2  3  1
  2  4  1
  2  5  1
  5  6  2
  5  7  1
  6  8  1
  7  9  2
  8 10  1
  8 11  2
  9 12  1
 10 13  2
 11 14  1
 11 15  1
 12 16  1
 12 17  1
 15 18  2
 15 19  1
 16 20  1
 18 21  1
 19 22  2
 20 23  1
 21 24  2
 25 21  1
 25 26  1
 25 27  1  1  0
 26 28  1
 28 29  2
 28 30  1
 29 31  1
 30 32  1
 30 33  1
  9 10  1
 13 14  1
 17 20  1
 22 24  1
 31 32  2
M  END
> <COMPOUND_NAMES>
Compound 110 (R) (Page No: 79, Table No: 2)

> <Reference>
WO 2021/021761 A1

> <IC50_range_nM>
101-1000

> <smiles>
C[C@H](Cc1nncn1C)c1cccc(c1)c1c2c(c(cc(C(F)(F)F)n2)N2CC(C2)O)n[nH]1

$$$$
C23H24F3N7O
  MOLSOFT 03092310482D

 34 38  0  0  1  0  0  0  0  0999 V2000
    0.0000   -0.0000    0.0000 F   0  0  0
   -0.0118   -1.4896    0.0000 C   0  0  0
    1.4778   -1.4778    0.0000 F   0  0  0
   -1.5251   -1.4778    0.0000 F   0  0  0
   -0.0236   -2.9792    0.0000 C   0  0  0
   -1.3359   -3.7122    0.0000 N   0  0  0
    1.2650   -3.7122    0.0000 C   0  0  0
   -1.3477   -5.2018    0.0000 C   0  0  0
    1.2532   -5.2018    0.0000 C   0  0  0
   -0.0591   -5.9347    0.0000 C   0  0  0
   -2.4708   -6.1948    0.0000 C   0  0  0
    2.5418   -5.9347    0.0000 N   0  0  0
   -0.3783   -7.3889    0.0000 N   0  0  0
   -1.8679   -7.5544    0.0000 N   0  0  0
   -3.9486   -5.8756    0.0000 C   0  0  0
    2.6836   -7.4125    0.0000 C   0  0  0
    3.9013   -5.3082    0.0000 C   0  0  0
   -4.4215   -4.4333    0.0000 C   0  0  0
   -4.9653   -6.9751    0.0000 C   0  0  0
    4.1378   -7.7081    0.0000 C   0  0  2
    4.8944   -6.4076    0.0000 C   0  0  0
   -5.8993   -4.1141    0.0000 C   0  0  0
   -6.4431   -6.6559    0.0000 C   0  0  0
    4.7407   -9.0676    0.0000 O   0  0  0
   -6.9160   -5.2136    0.0000 C   0  0  0
   -6.3722   -2.6718    0.0000 C   0  0  1
   -7.8499   -2.3526    0.0000 C   0  0  0
   -5.3791   -1.5487    0.0000 C   0  0  0
   -8.3228   -0.9103    0.0000 C   0  0  0
   -9.7651   -0.4374    0.0000 N   0  0  0
   -7.4480    0.3192    0.0000 N   0  0  0
   -9.7769    1.0758    0.0000 N   0  0  0
   -8.3465    1.5487    0.0000 C   0  0  0
   -5.9584    0.3310    0.0000 C   0  0  0
  1  2  1
  2  3  1
  2  4  1
  2  5  1
  5  6  2
  5  7  1
  6  8  1
  7  9  2
  8 10  1
  8 11  2
  9 12  1
 10 13  2
 11 14  1
 11 15  1
 12 16  1
 12 17  1
 15 18  2
 15 19  1
 20 16  1
 17 21  1
 18 22  1
 19 23  2
 20 24  1  6  0
 22 25  2
 26 22  1
 26 27  1
 26 28  1  1  0
 27 29  1
 29 30  2
 29 31  1
 30 32  1
 31 33  1
 31 34  1
  9 10  1
 13 14  1
 20 21  1
 23 25  1
 32 33  2
M  END
> <COMPOUND_NAMES>
Compound 111 (Stereo) (Page No: 79, Table No: 2)

> <Reference>
WO 2021/021761 A1

> <IC50_range_nM>
101-1000

> <smiles>
C[C@H](Cc1nncn1C)c1cccc(c1)c1c2c(c(cc(C(F)(F)F)n2)N2CC[C@@H](C2)O)n[nH]1

$$$$
C23H24F3N7O
  MOLSOFT 03092310482D

 34 38  0  0  1  0  0  0  0  0999 V2000
    0.0000   -0.0000    0.0000 F   0  0  0
   -0.0118   -1.4896    0.0000 C   0  0  0
    1.4778   -1.4778    0.0000 F   0  0  0
   -1.5251   -1.4778    0.0000 F   0  0  0
   -0.0236   -2.9792    0.0000 C   0  0  0
   -1.3359   -3.7122    0.0000 N   0  0  0
    1.2650   -3.7122    0.0000 C   0  0  0
   -1.3477   -5.2018    0.0000 C   0  0  0
    1.2532   -5.2018    0.0000 C   0  0  0
   -0.0591   -5.9347    0.0000 C   0  0  0
   -2.4708   -6.1948    0.0000 C   0  0  0
    2.5418   -5.9347    0.0000 N   0  0  0
   -0.3783   -7.3889    0.0000 N   0  0  0
   -1.8679   -7.5544    0.0000 N   0  0  0
   -3.9486   -5.8756    0.0000 C   0  0  0
    2.6836   -7.4125    0.0000 C   0  0  0
    3.9013   -5.3082    0.0000 C   0  0  0
   -4.4215   -4.4333    0.0000 C   0  0  0
   -4.9653   -6.9751    0.0000 C   0  0  0
    4.1378   -7.7081    0.0000 C   0  0  2
    4.8944   -6.4076    0.0000 C   0  0  0
   -5.8993   -4.1141    0.0000 C   0  0  0
   -6.4431   -6.6559    0.0000 C   0  0  0
    4.7407   -9.0676    0.0000 O   0  0  0
   -6.9160   -5.2136    0.0000 C   0  0  0
   -6.3722   -2.6718    0.0000 C   0  0  2
   -7.8499   -2.3526    0.0000 C   0  0  0
   -5.3791   -1.5487    0.0000 C   0  0  0
   -8.3228   -0.9103    0.0000 C   0  0  0
   -9.7651   -0.4374    0.0000 N   0  0  0
   -7.4480    0.3192    0.0000 N   0  0  0
   -9.7769    1.0758    0.0000 N   0  0  0
   -8.3465    1.5487    0.0000 C   0  0  0
   -5.9584    0.3310    0.0000 C   0  0  0
  1  2  1
  2  3  1
  2  4  1
  2  5  1
  5  6  2
  5  7  1
  6  8  1
  7  9  2
  8 10  1
  8 11  2
  9 12  1
 10 13  2
 11 14  1
 11 15  1
 12 16  1
 12 17  1
 15 18  2
 15 19  1
 20 16  1
 17 21  1
 18 22  1
 19 23  2
 20 24  1  6  0
 22 25  2
 26 22  1
 26 27  1
 26 28  1  6  0
 27 29  1
 29 30  2
 29 31  1
 30 32  1
 31 33  1
 31 34  1
  9 10  1
 13 14  1
 20 21  1
 23 25  1
 32 33  2
M  END
> <COMPOUND_NAMES>
Compound 112 (Stereo) (Page No: 79, Table No: 2)

> <Reference>
WO 2021/021761 A1

> <IC50_range_nM>
101-1000

> <smiles>
C[C@@H](Cc1nncn1C)c1cccc(c1)c1c2c(c(cc(C(F)(F)F)n2)N2CC[C@@H](C2)O)n[nH]1

$$$$
C24H26F3N7O
  MOLSOFT 03092310482D

 35 39  0  0  1  0  0  0  0  0999 V2000
    0.0000   -0.0000    0.0000 F   0  0  0
   -0.0118   -1.4902    0.0000 C   0  0  0
    1.4784   -1.4784    0.0000 F   0  0  0
   -1.5257   -1.4784    0.0000 F   0  0  0
   -0.0237   -2.9804    0.0000 C   0  0  0
   -1.3364   -3.7136    0.0000 N   0  0  0
    1.2655   -3.7136    0.0000 C   0  0  0
   -1.3483   -5.2038    0.0000 C   0  0  0
    1.2537   -5.2038    0.0000 C   0  0  0
   -0.0591   -5.9371    0.0000 C   0  0  0
   -2.4718   -6.1973    0.0000 C   0  0  0
    2.5428   -5.9371    0.0000 N   0  0  0
   -0.3785   -7.3918    0.0000 N   0  0  0
   -1.8686   -7.5574    0.0000 N   0  0  0
   -3.9502   -5.8780    0.0000 C   0  0  0
    3.8319   -5.1802    0.0000 C   0  0  0
    2.5310   -7.4273    0.0000 C   0  0  0
   -4.4233   -4.4351    0.0000 C   0  0  0
   -4.9673   -6.9779    0.0000 C   0  0  0
    5.1210   -5.9134    0.0000 C   0  0  0
    3.8201   -8.1606    0.0000 C   0  0  0
   -5.9016   -4.1158    0.0000 C   0  0  0
   -6.4457   -6.6585    0.0000 C   0  0  0
    5.1092   -7.4036    0.0000 C   0  0  0
   -6.9187   -5.2157    0.0000 C   0  0  0
   -6.3747   -2.6729    0.0000 C   0  0  1
    6.3983   -8.1369    0.0000 O   0  0  0
   -7.8531   -2.3536    0.0000 C   0  0  0
   -5.3812   -1.5493    0.0000 C   0  0  0
   -8.3261   -0.9107    0.0000 C   0  0  0
   -9.7690   -0.4376    0.0000 N   0  0  0
   -7.4509    0.3193    0.0000 N   0  0  0
   -9.7808    1.0762    0.0000 N   0  0  0
   -8.3498    1.5493    0.0000 C   0  0  0
   -5.9608    0.3312    0.0000 C   0  0  0
  1  2  1
  2  3  1
  2  4  1
  2  5  1
  5  6  2
  5  7  1
  6  8  1
  7  9  2
  8 10  1
  8 11  2
  9 12  1
 10 13  2
 11 14  1
 11 15  1
 12 16  1
 12 17  1
 15 18  2
 15 19  1
 16 20  1
 17 21  1
 18 22  1
 19 23  2
 20 24  1
 22 25  2
 26 22  1
 24 27  1
 26 28  1
 26 29  1  1  0
 28 30  1
 30 31  2
 30 32  1
 31 33  1
 32 34  1
 32 35  1
  9 10  1
 13 14  1
 21 24  1
 23 25  1
 33 34  2
M  END
> <COMPOUND_NAMES>
Compound 109 (R) (Page No: 79, Table No: 2)

> <Reference>
WO 2021/021761 A1

> <IC50_range_nM>
101-1000

> <smiles>
C[C@H](Cc1nncn1C)c1cccc(c1)c1c2c(c(cc(C(F)(F)F)n2)N2CCC(CC2)O)n[nH]1

$$$$
C23H27N7O
  MOLSOFT 03092310482D

 31 35  0  0  1  0  0  0  0  0999 V2000
    0.0000   -0.0000    0.0000 O   0  0  0
   -1.3043    0.7520    0.0000 C   0  0  0
   -1.3161    2.2561    0.0000 C   0  0  0
   -2.6086    0.0235    0.0000 C   0  0  0
   -2.6204    3.0081    0.0000 C   0  0  0
   -3.9129    0.7755    0.0000 C   0  0  0
   -3.9247    2.2679    0.0000 N   0  0  0
   -5.2290    3.0199    0.0000 C   0  0  0
   -6.5333    2.2796    0.0000 C   0  0  0
   -5.2408    4.5240    0.0000 C   0  0  0
   -6.8506    0.8343    0.0000 N   0  0  0
   -7.8376    3.0316    0.0000 C   0  0  0
   -6.5451    5.2760    0.0000 C   0  0  0
   -8.3429    0.6933    0.0000 N   0  0  0
   -7.8494    4.5357    0.0000 N   0  0  0
   -8.9539    2.0446    0.0000 C   0  0  0
  -10.4228    2.3619    0.0000 C   0  0  0
  -10.8928    3.7954    0.0000 C   0  0  0
  -11.4333    1.2691    0.0000 C   0  0  0
  -12.3616    4.1127    0.0000 C   0  0  0
  -12.9021    1.5863    0.0000 C   0  0  0
  -13.3721    3.0199    0.0000 C   0  0  0
  -12.8316    5.5463    0.0000 C   0  0  1
  -14.3004    5.8635    0.0000 C   0  0  0
  -11.8446    6.6626    0.0000 C   0  0  0
  -14.7705    7.2971    0.0000 C   0  0  0
  -16.2040    7.7671    0.0000 N   0  0  0
  -13.9009    8.5192    0.0000 N   0  0  0
  -16.2158    9.2712    0.0000 N   0  0  0
  -14.7940    9.7412    0.0000 C   0  0  0
  -12.4203    8.5309    0.0000 C   0  0  0
  1  2  1
  2  3  1
  2  4  1
  3  5  1
  4  6  1
  5  7  1
  7  8  1
  8  9  2
  8 10  1
  9 11  1
  9 12  1
 10 13  2
 11 14  1
 12 15  2
 12 16  1
 16 17  1
 17 18  2
 17 19  1
 18 20  1
 19 21  2
 20 22  2
 23 20  1
 23 24  1
 23 25  1  1  0
 24 26  1
 26 27  2
 26 28  1
 27 29  1
 28 30  1
 28 31  1
  6  7  1
 13 15  1
 14 16  2
 21 22  1
 29 30  2
M  END
> <COMPOUND_NAMES>
Compound 117 (R) (Page No: 80, Table No: 2)

> <Reference>
WO 2021/021761 A1

> <IC50_range_nM>
1001-5000

> <smiles>
C[C@H](Cc1nncn1C)c1cccc(c1)c1c2c(c(ccn2)N2CCC(CC2)O)[nH]n1

$$$$
C24H25F4N7
  MOLSOFT 03092310482D

 35 39  0  0  1  0  0  0  0  0999 V2000
    0.0000   -0.0000    0.0000 F   0  0  0
   -0.0118   -1.4889    0.0000 C   0  0  0
    1.4771   -1.4771    0.0000 F   0  0  0
   -1.5243   -1.4771    0.0000 F   0  0  0
   -0.0236   -2.9778    0.0000 C   0  0  0
   -1.3353   -3.7104    0.0000 N   0  0  0
    1.2644   -3.7104    0.0000 C   0  0  0
   -1.3471   -5.1993    0.0000 C   0  0  0
    1.2526   -5.1993    0.0000 C   0  0  0
   -0.0591   -5.9319    0.0000 C   0  0  0
   -2.4697   -6.1919    0.0000 C   0  0  0
    2.5406   -5.9319    0.0000 C   0  0  0
   -0.3781   -7.3853    0.0000 N   0  0  0
   -1.8670   -7.5508    0.0000 N   0  0  0
   -3.9467   -5.8728    0.0000 C   0  0  0
    3.8286   -5.1756    0.0000 N   0  0  0
   -4.4194   -4.4312    0.0000 C   0  0  0
   -4.9629   -6.9717    0.0000 C   0  0  0
    5.1875   -5.7783    0.0000 C   0  0  0
    3.9704   -3.6749    0.0000 C   0  0  0
   -5.8964   -4.1122    0.0000 C   0  0  0
   -6.4400   -6.6527    0.0000 C   0  0  0
    6.1800   -4.6557    0.0000 C   0  0  2
    5.4238   -3.3559    0.0000 C   0  0  0
   -6.9127   -5.2111    0.0000 C   0  0  0
   -6.3691   -2.6705    0.0000 C   0  0  2
    7.6571   -4.7975    0.0000 F   0  0  0
   -7.8462   -2.3515    0.0000 C   0  0  0
   -5.3765   -1.5480    0.0000 C   0  0  0
   -8.3188   -0.9099    0.0000 C   0  0  0
   -9.7604   -0.4372    0.0000 N   0  0  0
   -7.4444    0.3190    0.0000 N   0  0  0
   -9.7723    1.0753    0.0000 N   0  0  0
   -8.3425    1.5480    0.0000 C   0  0  0
   -5.9555    0.3309    0.0000 C   0  0  0
  1  2  1
  2  3  1
  2  4  1
  2  5  1
  5  6  2
  5  7  1
  6  8  1
  7  9  2
  8 10  1
  8 11  2
  9 12  1
 10 13  2
 11 14  1
 11 15  1
 12 16  1
 15 17  2
 15 18  1
 16 19  1
 16 20  1
 17 21  1
 18 22  2
 23 19  1
 20 24  1
 21 25  2
 26 21  1
 23 27  1  6  0
 26 28  1
 26 29  1  6  0
 28 30  1
 30 31  2
 30 32  1
 31 33  1
 32 34  1
 32 35  1
  9 10  1
 13 14  1
 22 25  1
 23 24  1
 33 34  2
M  END
> <COMPOUND_NAMES>
Compound 113 (Stereo) (Page No: 80, Table No: 2)

> <Reference>
WO 2021/021761 A1

> <IC50_range_nM>
<100

> <smiles>
C[C@@H](Cc1nncn1C)c1cccc(c1)c1c2c(c(CN3CC[C@@H](C3)F)cc(C(F)(F)F)n2)n[nH]1

$$$$
C20H22N6O
  MOLSOFT 03092310482D

 27 30  0  0  1  0  0  0  0  0999 V2000
    0.0000   -0.0000    0.0000 O   0  0  0
   -0.0118    1.5058    0.0000 C   0  0  0
    1.2705    2.2705    0.0000 N   0  0  0
   -1.3176    2.2705    0.0000 N   0  0  0
    1.4117    3.7646    0.0000 C   0  0  0
    2.6234    1.6705    0.0000 C   0  0  0
   -2.6234    1.5294    0.0000 C   0  0  0
    0.4000    4.8822    0.0000 N   0  0  0
    2.8587    4.0822    0.0000 C   0  0  0
    3.6117    2.7881    0.0000 C   0  0  0
   -3.9293    2.2940    0.0000 C   0  0  0
   -2.6352    0.0471    0.0000 C   0  0  0
    0.8470    6.3174    0.0000 C   0  0  0
    3.3058    5.5175    0.0000 C   0  0  0
   -5.2351    1.5529    0.0000 C   0  0  0
   -3.9411   -0.6941    0.0000 C   0  0  0
    2.2940    6.6351    0.0000 C   0  0  0
   -5.2469    0.0706    0.0000 C   0  0  0
   -6.5410    2.3176    0.0000 C   0  0  1
   -7.8468    1.5764    0.0000 C   0  0  0
   -6.5527    3.8234    0.0000 C   0  0  0
   -9.1527    2.3411    0.0000 C   0  0  0
  -10.5291    1.7411    0.0000 N   0  0  0
   -9.3174    3.8352    0.0000 N   0  0  0
  -11.5408    2.8587    0.0000 N   0  0  0
  -10.7879    4.1528    0.0000 C   0  0  0
   -8.2233    4.8469    0.0000 C   0  0  0
  1  2  2
  2  3  1
  2  4  1
  3  5  1
  3  6  1
  4  7  1
  5  8  2
  5  9  1
  6 10  1
  7 11  2
  7 12  1
  8 13  1
  9 14  2
 11 15  1
 12 16  2
 13 17  2
 15 18  2
 19 15  1
 19 20  1
 19 21  1  1  0
 20 22  1
 22 23  2
 22 24  1
 23 25  1
 24 26  1
 24 27  1
  9 10  1
 14 17  1
 16 18  1
 25 26  2
M  END
> <COMPOUND_NAMES>
Compound 16 (R) (Page No: 56, Table No: 1)

> <Reference>
WO 2021/021761 A1

> <IC50_range_nM>
101-1000

> <smiles>
C[C@H](Cc1nncn1C)c1cccc(c1)NC(N1CCc2cccnc12)=O

$$$$
C22H26N6O
  MOLSOFT 03092310482D

 29 32  0  0  1  0  0  0  0  0999 V2000
    0.0000   -0.0000    0.0000 O   0  0  0
   -0.0118    1.5067    0.0000 C   0  0  0
    1.2713    2.2718    0.0000 N   0  0  0
   -1.3184    2.2718    0.0000 N   0  0  0
    1.4125    3.7668    0.0000 C   0  0  0
    2.6250    1.6715    0.0000 C   0  0  0
   -2.6250    1.5303    0.0000 C   0  0  0
    0.4002    4.8850    0.0000 N   0  0  0
    2.8604    4.0846    0.0000 C   0  0  0
    3.6137    2.7898    0.0000 C   0  0  0
   -3.9316    2.2954    0.0000 C   0  0  0
   -2.6367    0.0471    0.0000 C   0  0  0
    0.8475    6.3211    0.0000 C   0  0  0
    3.3077    5.5207    0.0000 C   0  0  0
    4.8144    1.9187    0.0000 C   0  0  0
    4.9674    3.4136    0.0000 C   0  0  0
   -5.2382    1.5538    0.0000 C   0  0  0
   -3.9433   -0.6945    0.0000 C   0  0  0
    2.2954    6.6389    0.0000 C   0  0  0
   -5.2499    0.0706    0.0000 C   0  0  0
   -6.5448    2.3189    0.0000 C   0  0  1
   -7.8514    1.5773    0.0000 C   0  0  0
   -6.5565    3.8256    0.0000 C   0  0  0
   -9.1580    2.3425    0.0000 C   0  0  0
  -10.5352    1.7421    0.0000 N   0  0  0
   -9.3228    3.8374    0.0000 N   0  0  0
  -11.5475    2.8604    0.0000 N   0  0  0
  -10.7942    4.1552    0.0000 C   0  0  0
   -8.2280    4.8497    0.0000 C   0  0  0
  1  2  2
  2  3  1
  2  4  1
  3  5  1
  3  6  1
  4  7  1
  5  8  2
  5  9  1
  6 10  1
  7 11  2
  7 12  1
  8 13  1
  9 14  2
 10 15  1
 10 16  1
 11 17  1
 12 18  2
 13 19  2
 17 20  2
 21 17  1
 21 22  1
 21 23  1  1  0
 22 24  1
 24 25  2
 24 26  1
 25 27  1
 26 28  1
 26 29  1
  9 10  1
 14 19  1
 18 20  1
 27 28  2
M  END
> <COMPOUND_NAMES>
Compound 22 (R) (Page No: 56, Table No: 1)

> <Reference>
WO 2021/021761 A1

> <IC50_range_nM>
101-1000

> <smiles>
C[C@H](Cc1nncn1C)c1cccc(c1)NC(N1CC(C)(C)c2cccnc12)=O

$$$$
C21H24N6O
  MOLSOFT 03092310482D

 28 31  0  0  1  0  0  0  0  0999 V2000
    0.0000   -0.0000    0.0000 O   0  0  0
   -0.0118    1.5071    0.0000 C   0  0  0
    1.2716    2.2607    0.0000 N   0  0  0
   -1.3187    2.2607    0.0000 N   0  0  0
    1.2598    3.7678    0.0000 C   0  0  0
    2.5550    1.5189    0.0000 C   0  0  0
   -2.6257    1.5307    0.0000 C   0  0  0
   -0.0471    4.5213    0.0000 N   0  0  0
    2.5432    4.5331    0.0000 C   0  0  0
    3.8384    2.2842    0.0000 C   0  0  0
   -3.9326    2.2842    0.0000 C   0  0  0
   -2.6374    0.0471    0.0000 C   0  0  0
   -0.0589    6.0284    0.0000 C   0  0  0
    2.5315    6.0402    0.0000 C   0  0  0
    3.8266    3.8031    0.0000 C   0  0  0
   -5.2396    1.5542    0.0000 C   0  0  0
   -3.9444   -0.6829    0.0000 C   0  0  0
    1.2245    6.7820    0.0000 C   0  0  0
   -5.2513    0.0706    0.0000 C   0  0  0
   -6.5465    2.3078    0.0000 C   0  0  1
   -7.8535    1.5778    0.0000 C   0  0  0
   -6.5583    3.8149    0.0000 C   0  0  0
   -9.1604    2.3313    0.0000 C   0  0  0
  -10.5380    1.7308    0.0000 N   0  0  0
   -9.3252    3.8266    0.0000 N   0  0  0
  -11.5506    2.8494    0.0000 N   0  0  0
  -10.7970    4.1446    0.0000 C   0  0  0
   -8.2302    4.8392    0.0000 C   0  0  0
  1  2  2
  2  3  1
  2  4  1
  3  5  1
  3  6  1
  4  7  1
  5  8  2
  5  9  1
  6 10  1
  7 11  2
  7 12  1
  8 13  1
  9 14  2
  9 15  1
 11 16  1
 12 17  2
 13 18  2
 16 19  2
 20 16  1
 20 21  1
 20 22  1  1  0
 21 23  1
 23 24  2
 23 25  1
 24 26  1
 25 27  1
 25 28  1
 10 15  1
 14 18  1
 17 19  1
 26 27  2
M  END
> <COMPOUND_NAMES>
Compound 9 (R) (Page No: 56, Table No: 1)

> <Reference>
WO 2021/021761 A1

> <IC50_range_nM>
101-1000

> <smiles>
C[C@H](Cc1nncn1C)c1cccc(c1)NC(N1CCCc2cccnc12)=O

$$$$
C25H29N7O2
  MOLSOFT 03092310482D

 34 39  0  0  0  0  0  0  0  0999 V2000
    0.0000   -0.0000    0.0000 O   0  0  0
   -0.0118    1.5069    0.0000 C   0  0  0
    1.2714    2.2721    0.0000 N   0  0  0
   -1.3185    2.2721    0.0000 N   0  0  0
    1.4127    3.7672    0.0000 C   0  0  0
    2.6253    1.6717    0.0000 C   0  0  0
   -2.6253    1.5304    0.0000 C   0  0  0
    0.4003    4.8856    0.0000 N   0  0  0
    2.8607    4.0851    0.0000 C   0  0  0
    3.6142    2.7901    0.0000 C   0  0  0
   -3.9320    2.2957    0.0000 C   0  0  0
   -2.6371    0.0471    0.0000 C   0  0  0
    0.8476    6.3219    0.0000 C   0  0  0
    3.3081    5.5213    0.0000 C   0  0  0
    4.4854    4.0145    0.0000 C   0  0  0
    4.2146    1.4363    0.0000 C   0  0  0
   -5.2388    1.5540    0.0000 C   0  0  0
   -3.9438   -0.6946    0.0000 C   0  0  0
    2.2957    6.6397    0.0000 C   0  0  0
    5.9569    3.8732    0.0000 C   0  0  0
    5.6862    1.2950    0.0000 C   0  0  0
   -5.2506    0.0706    0.0000 C   0  0  0
   -6.5456    2.3192    0.0000 C   0  0  0
    6.5573    2.5193    0.0000 N   0  0  0
   -8.0054    1.9425    0.0000 C   0  0  0
   -6.9458    3.7790    0.0000 C   0  0  0
   -5.2623    3.0726    0.0000 C   0  0  0
   -8.4056    3.4023    0.0000 O   0  0  0
   -5.2741    4.5795    0.0000 C   0  0  0
   -4.0733    5.4743    0.0000 N   0  0  0
   -6.4985    5.4743    0.0000 N   0  0  0
   -4.5442    6.9105    0.0000 N   0  0  0
   -6.0511    6.9105    0.0000 C   0  0  0
   -7.9347    5.0269    0.0000 C   0  0  0
  1  2  2
  2  3  1
  2  4  1
  3  5  1
  3  6  1
  4  7  1
  5  8  2
  5  9  1
  6 10  1
  7 11  2
  7 12  1
  8 13  1
  9 14  2
 10 15  1
 10 16  1
 11 17  1
 12 18  2
 13 19  2
 15 20  1
 16 21  1
 17 22  2
 17 23  1
 20 24  1
 23 25  1
 23 26  1
 23 27  1
 25 28  1
 27 29  1
 29 30  2
 29 31  1
 30 32  1
 31 33  1
 31 34  1
  9 10  1
 14 19  1
 18 22  1
 21 24  1
 26 28  1
 32 33  2
M  END
> <COMPOUND_NAMES>
Compound 30 (Page No: 57, Table No: 1)

> <Reference>
WO 2021/021761 A1

> <IC50_range_nM>
<100

> <smiles>
Cn1cnnc1CC1(COC1)c1cccc(c1)NC(N1CC2(CCNCC2)c2cccnc12)=O

$$$$
C26H31N7O2
  MOLSOFT 03092310482D

 35 40  0  0  0  0  0  0  0  0999 V2000
    0.0000   -0.0000    0.0000 O   0  0  0
   -0.0118    1.5074    0.0000 C   0  0  0
    1.2719    2.2729    0.0000 N   0  0  0
   -1.3190    2.2729    0.0000 N   0  0  0
    1.4132    3.7686    0.0000 C   0  0  0
    2.6262    1.6723    0.0000 C   0  0  0
   -2.6262    1.5310    0.0000 C   0  0  0
    0.4004    4.8874    0.0000 N   0  0  0
    2.8618    4.0866    0.0000 C   0  0  0
    3.6155    2.7911    0.0000 C   0  0  0
   -3.9335    2.2965    0.0000 C   0  0  0
   -2.6380    0.0471    0.0000 C   0  0  0
    0.8479    6.3242    0.0000 C   0  0  0
    3.3093    5.5233    0.0000 C   0  0  0
    4.4870    4.0159    0.0000 C   0  0  0
    4.2161    1.4368    0.0000 C   0  0  0
   -5.2407    1.5545    0.0000 C   0  0  0
   -3.9452   -0.6948    0.0000 C   0  0  0
    2.2965    6.6421    0.0000 C   0  0  0
    5.9591    3.8746    0.0000 C   0  0  0
    5.6882    1.2955    0.0000 C   0  0  0
   -5.2525    0.0707    0.0000 C   0  0  0
   -6.5479    2.3200    0.0000 C   0  0  0
    6.5597    2.5202    0.0000 N   0  0  0
   -8.0083    1.9432    0.0000 C   0  0  0
   -6.9483    3.7804    0.0000 C   0  0  0
   -5.2642    3.0738    0.0000 C   0  0  0
    8.0318    2.3789    0.0000 C   0  0  0
   -8.4087    3.4035    0.0000 O   0  0  0
   -5.2760    4.5812    0.0000 C   0  0  0
   -4.0748    5.4762    0.0000 N   0  0  0
   -6.5008    5.4762    0.0000 N   0  0  0
   -4.5459    6.9130    0.0000 N   0  0  0
   -6.0533    6.9130    0.0000 C   0  0  0
   -7.9376    5.0287    0.0000 C   0  0  0
  1  2  2
  2  3  1
  2  4  1
  3  5  1
  3  6  1
  4  7  1
  5  8  2
  5  9  1
  6 10  1
  7 11  2
  7 12  1
  8 13  1
  9 14  2
 10 15  1
 10 16  1
 11 17  1
 12 18  2
 13 19  2
 15 20  1
 16 21  1
 17 22  2
 17 23  1
 20 24  1
 23 25  1
 23 26  1
 23 27  1
 24 28  1
 25 29  1
 27 30  1
 30 31  2
 30 32  1
 31 33  1
 32 34  1
 32 35  1
  9 10  1
 14 19  1
 18 22  1
 21 24  1
 26 29  1
 33 34  2
M  END
> <COMPOUND_NAMES>
Compound 31 (Page No: 57, Table No: 1)

> <Reference>
WO 2021/021761 A1

> <IC50_range_nM>
101-1000

> <smiles>
CN1CCC2(CC1)CN(C(Nc1cccc(c1)C1(Cc3nncn3C)COC1)=O)c1c2cccn1

$$$$
C20H20N6O2
  MOLSOFT 03092310482D

 28 32  0  0  1  0  0  0  0  0999 V2000
    0.0000   -0.0000    0.0000 O   0  0  0
   -0.0118    1.5088    0.0000 C   0  0  0
    1.2730    2.2632    0.0000 N   0  0  0
   -1.3202    2.2632    0.0000 N   0  0  0
    1.2613    3.7720    0.0000 C   0  0  0
    2.5579    1.5206    0.0000 C   0  0  0
   -2.6286    1.5324    0.0000 C   0  0  0
   -0.0471    4.5264    0.0000 N   0  0  0
    2.5461    4.5382    0.0000 C   0  0  0
    3.8427    2.2868    0.0000 C   0  0  0
   -3.9370    2.2868    0.0000 C   0  0  0
   -2.6404    0.0471    0.0000 C   0  0  0
   -0.0589    6.0352    0.0000 C   0  0  0
    3.8309    3.8073    0.0000 O   0  0  0
    2.5343    6.0469    0.0000 C   0  0  0
   -5.2454    1.5559    0.0000 C   0  0  0
   -3.9488   -0.6837    0.0000 C   0  0  0
    1.2259    6.7896    0.0000 C   0  0  0
   -5.2572    0.0707    0.0000 C   0  0  0
   -6.5538    2.3103    0.0000 C   0  0  2
   -8.0626    2.3221    0.0000 C   0  0  1
   -7.3082    3.6187    0.0000 C   0  0  0
   -9.3710    1.5913    0.0000 C   0  0  0
  -10.7501    2.2160    0.0000 N   0  0  0
   -9.5360    0.1179    0.0000 N   0  0  0
  -11.7639    1.1198    0.0000 N   0  0  0
  -11.0095   -0.1768    0.0000 C   0  0  0
   -8.4398   -0.8723    0.0000 C   0  0  0
  1  2  2
  2  3  1
  2  4  1
  3  5  1
  3  6  1
  4  7  1
  5  8  2
  5  9  1
  6 10  1
  7 11  2
  7 12  1
  8 13  1
  9 14  1
  9 15  2
 11 16  1
 12 17  2
 13 18  2
 16 19  2
 20 16  1  6  0
 20 21  1
 20 22  1
 21 23  1  6  0
 23 24  2
 23 25  1
 24 26  1
 25 27  1
 25 28  1
 10 14  1
 15 18  1
 17 19  1
 21 22  1
 26 27  2
M  END
> <COMPOUND_NAMES>
Compound 25 (Stereo) (Page No: 57, Table No: 1)

> <Reference>
WO 2021/021761 A1

> <IC50_range_nM>
101-1000

> <smiles>
Cn1cnnc1[C@@H]1C[C@@H]1c1cccc(c1)NC(N1CCOc2cccnc12)=O

$$$$
C20H20N6O2
  MOLSOFT 03092310482D

 28 32  0  0  1  0  0  0  0  0999 V2000
    0.0000   -0.0000    0.0000 O   0  0  0
   -0.0118    1.5088    0.0000 C   0  0  0
    1.2730    2.2632    0.0000 N   0  0  0
   -1.3202    2.2632    0.0000 N   0  0  0
    1.2613    3.7720    0.0000 C   0  0  0
    2.5579    1.5206    0.0000 C   0  0  0
   -2.6286    1.5324    0.0000 C   0  0  0
   -0.0471    4.5264    0.0000 N   0  0  0
    2.5461    4.5382    0.0000 C   0  0  0
    3.8427    2.2868    0.0000 C   0  0  0
   -3.9370    2.2868    0.0000 C   0  0  0
   -2.6404    0.0471    0.0000 C   0  0  0
   -0.0589    6.0352    0.0000 C   0  0  0
    3.8309    3.8073    0.0000 O   0  0  0
    2.5343    6.0469    0.0000 C   0  0  0
   -5.2454    1.5559    0.0000 C   0  0  0
   -3.9488   -0.6837    0.0000 C   0  0  0
    1.2259    6.7896    0.0000 C   0  0  0
   -5.2572    0.0707    0.0000 C   0  0  0
   -6.5538    2.3103    0.0000 C   0  0  1
   -8.0626    2.3221    0.0000 C   0  0  2
   -7.3082    3.6187    0.0000 C   0  0  0
   -9.3710    1.5913    0.0000 C   0  0  0
  -10.7501    2.2160    0.0000 N   0  0  0
   -9.5360    0.1179    0.0000 N   0  0  0
  -11.7639    1.1198    0.0000 N   0  0  0
  -11.0095   -0.1768    0.0000 C   0  0  0
   -8.4398   -0.8723    0.0000 C   0  0  0
  1  2  2
  2  3  1
  2  4  1
  3  5  1
  3  6  1
  4  7  1
  5  8  2
  5  9  1
  6 10  1
  7 11  2
  7 12  1
  8 13  1
  9 14  1
  9 15  2
 11 16  1
 12 17  2
 13 18  2
 16 19  2
 20 16  1  1  0
 20 21  1
 20 22  1
 21 23  1  1  0
 23 24  2
 23 25  1
 24 26  1
 25 27  1
 25 28  1
 10 14  1
 15 18  1
 17 19  1
 21 22  1
 26 27  2
M  END
> <COMPOUND_NAMES>
Compound 166 (Stereo) (Page No: 60, Table No: 1)

> <Reference>
WO 2021/021761 A1

> <IC50_range_nM>
>5000

> <smiles>
Cn1cnnc1[C@H]1C[C@H]1c1cccc(c1)NC(N1CCOc2cccnc12)=O

$$$$
C20H22N6O2
  MOLSOFT 03092310482D

 28 31  0  0  1  0  0  0  0  0999 V2000
    0.0000   -0.0000    0.0000 O   0  0  0
   -0.0118    1.5071    0.0000 C   0  0  0
    1.2716    2.2607    0.0000 N   0  0  0
   -1.3187    2.2607    0.0000 N   0  0  0
    1.2598    3.7678    0.0000 C   0  0  0
    2.5550    1.5189    0.0000 C   0  0  0
   -2.6257    1.5307    0.0000 C   0  0  0
   -0.0471    4.5213    0.0000 N   0  0  0
    2.5432    4.5331    0.0000 C   0  0  0
    3.8384    2.2842    0.0000 C   0  0  0
   -3.9326    2.2842    0.0000 C   0  0  0
   -2.6374    0.0471    0.0000 C   0  0  0
   -0.0589    6.0284    0.0000 C   0  0  0
    3.8266    3.8031    0.0000 O   0  0  0
    2.5315    6.0402    0.0000 C   0  0  0
   -5.2396    1.5542    0.0000 C   0  0  0
   -3.9444   -0.6829    0.0000 C   0  0  0
    1.2245    6.7820    0.0000 C   0  0  0
   -5.2513    0.0706    0.0000 C   0  0  0
   -6.5465    2.3078    0.0000 C   0  0  1
   -7.8535    1.5778    0.0000 C   0  0  0
   -6.5583    3.8149    0.0000 C   0  0  0
   -9.1604    2.3313    0.0000 C   0  0  0
  -10.5380    1.7308    0.0000 N   0  0  0
   -9.3252    3.8266    0.0000 N   0  0  0
  -11.5506    2.8494    0.0000 N   0  0  0
  -10.7970    4.1446    0.0000 C   0  0  0
   -8.2302    4.8392    0.0000 C   0  0  0
  1  2  2
  2  3  1
  2  4  1
  3  5  1
  3  6  1
  4  7  1
  5  8  2
  5  9  1
  6 10  1
  7 11  2
  7 12  1
  8 13  1
  9 14  1
  9 15  2
 11 16  1
 12 17  2
 13 18  2
 16 19  2
 20 16  1
 20 21  1
 20 22  1  1  0
 21 23  1
 23 24  2
 23 25  1
 24 26  1
 25 27  1
 25 28  1
 10 14  1
 15 18  1
 17 19  1
 26 27  2
M  END
> <COMPOUND_NAMES>
Compound 10 (R) (Page No: 56, Table No: 1)

> <Reference>
WO 2021/021761 A1

> <IC50_range_nM>
<100

> <smiles>
C[C@H](Cc1nncn1C)c1cccc(c1)NC(N1CCOc2cccnc12)=O

$$$$
C22H26N6O2
  MOLSOFT 03092310482D

 30 33  0  0  1  0  0  0  0  0999 V2000
    0.0000   -0.0000    0.0000 O   0  0  0
   -0.0118    1.5081    0.0000 C   0  0  0
    1.2725    2.2622    0.0000 N   0  0  0
   -1.3196    2.2622    0.0000 N   0  0  0
    1.2607    3.7704    0.0000 C   0  0  0
    2.5568    1.5199    0.0000 C   0  0  0
   -2.6275    1.5317    0.0000 C   0  0  0
   -0.0471    4.5244    0.0000 N   0  0  0
    2.5450    4.5362    0.0000 C   0  0  0
    3.8411    2.2858    0.0000 C   0  0  0
   -3.9353    2.2858    0.0000 C   0  0  0
   -2.6393    0.0471    0.0000 C   0  0  0
   -0.0589    6.0326    0.0000 C   0  0  0
    3.8293    3.8057    0.0000 O   0  0  0
    2.5332    6.0444    0.0000 C   0  0  0
    4.5834    1.0015    0.0000 C   0  0  0
    5.3256    2.2976    0.0000 C   0  0  0
   -5.2432    1.5553    0.0000 C   0  0  0
   -3.9471   -0.6834    0.0000 C   0  0  0
    1.2254    6.7867    0.0000 C   0  0  0
   -5.2550    0.0707    0.0000 C   0  0  0
   -6.5510    2.3094    0.0000 C   0  0  1
   -7.8589    1.5788    0.0000 C   0  0  0
   -6.5628    3.8175    0.0000 C   0  0  0
   -9.1667    2.3329    0.0000 C   0  0  0
  -10.5453    1.7320    0.0000 N   0  0  0
   -9.3317    3.8293    0.0000 N   0  0  0
  -11.5585    2.8513    0.0000 N   0  0  0
  -10.8045    4.1474    0.0000 C   0  0  0
   -8.2359    4.8426    0.0000 C   0  0  0
  1  2  2
  2  3  1
  2  4  1
  3  5  1
  3  6  1
  4  7  1
  5  8  2
  5  9  1
  6 10  1
  7 11  2
  7 12  1
  8 13  1
  9 14  1
  9 15  2
 10 16  1
 10 17  1
 11 18  1
 12 19  2
 13 20  2
 18 21  2
 22 18  1
 22 23  1
 22 24  1  1  0
 23 25  1
 25 26  2
 25 27  1
 26 28  1
 27 29  1
 27 30  1
 10 14  1
 15 20  1
 19 21  1
 28 29  2
M  END
> <COMPOUND_NAMES>
Compound 19 (R) (Page No: 56, Table No: 1)

> <Reference>
WO 2021/021761 A1

> <IC50_range_nM>
<100

> <smiles>
C[C@H](Cc1nncn1C)c1cccc(c1)NC(N1CC(C)(C)Oc2cccnc12)=O

$$$$
C20H21BrN6O2
  MOLSOFT 03092310482D

 29 32  0  0  1  0  0  0  0  0999 V2000
    0.0000   -0.0000    0.0000 Br  0  0  0
   -0.0118   -1.4890    0.0000 C   0  0  0
   -1.3236   -2.2217    0.0000 C   0  0  0
    1.2763   -2.2217    0.0000 C   0  0  0
   -1.3354   -3.7107    0.0000 N   0  0  0
    1.2645   -3.7107    0.0000 C   0  0  0
   -0.0473   -4.4434    0.0000 C   0  0  0
    2.5526   -4.4434    0.0000 O   0  0  0
   -0.0591   -5.9324    0.0000 N   0  0  0
    2.5408   -5.9324    0.0000 C   0  0  0
   -1.3708   -6.6651    0.0000 C   0  0  0
    1.2290   -6.6769    0.0000 C   0  0  0
   -1.3827   -8.1541    0.0000 O   0  0  0
   -2.6826   -5.9088    0.0000 N   0  0  0
   -3.9943   -6.6415    0.0000 C   0  0  0
   -5.3061   -5.8851    0.0000 C   0  0  0
   -4.0061   -8.1305    0.0000 C   0  0  0
   -6.6178   -6.6178    0.0000 C   0  0  0
   -5.3179   -8.8632    0.0000 C   0  0  0
   -6.6296   -8.1068    0.0000 C   0  0  0
   -7.9296   -5.8615    0.0000 C   0  0  1
   -9.2413   -6.5942    0.0000 C   0  0  0
   -7.9414   -4.3489    0.0000 C   0  0  0
  -10.5531   -5.8379    0.0000 C   0  0  0
  -11.9357   -6.4406    0.0000 N   0  0  0
  -10.7185   -4.3370    0.0000 N   0  0  0
  -12.9520   -5.3179    0.0000 N   0  0  0
  -12.1957   -4.0180    0.0000 C   0  0  0
   -9.6195   -3.3207    0.0000 C   0  0  0
  1  2  1
  2  3  2
  2  4  1
  3  5  1
  4  6  2
  5  7  2
  6  8  1
  7  9  1
  8 10  1
  9 11  1
  9 12  1
 11 13  2
 11 14  1
 14 15  1
 15 16  2
 15 17  1
 16 18  1
 17 19  2
 18 20  2
 21 18  1
 21 22  1
 21 23  1  1  0
 22 24  1
 24 25  2
 24 26  1
 25 27  1
 26 28  1
 26 29  1
  6  7  1
 10 12  1
 19 20  1
 27 28  2
M  END
> <COMPOUND_NAMES>
Compound 21 (R) (Page No: 56, Table No: 1)

> <Reference>
WO 2021/021761 A1

> <IC50_range_nM>
101-1000

> <smiles>
C[C@H](Cc1nncn1C)c1cccc(c1)NC(N1CCOc2cc(cnc12)[Br])=O

$$$$
C21H22N6O3
  MOLSOFT 03092310482D

 30 34  0  0  0  0  0  0  0  0999 V2000
    0.0000   -0.0000    0.0000 O   0  0  0
   -0.0118    1.5054    0.0000 C   0  0  0
    1.2702    2.2582    0.0000 N   0  0  0
   -1.3173    2.2582    0.0000 N   0  0  0
    1.2584    3.7636    0.0000 C   0  0  0
    2.5522    1.5172    0.0000 C   0  0  0
   -2.6227    1.5290    0.0000 C   0  0  0
   -0.0470    4.5163    0.0000 N   0  0  0
    2.5404    4.5281    0.0000 C   0  0  0
    3.8342    2.2817    0.0000 C   0  0  0
   -3.9282    2.2817    0.0000 C   0  0  0
   -2.6345    0.0470    0.0000 C   0  0  0
   -0.0588    6.0217    0.0000 C   0  0  0
    3.8224    3.7989    0.0000 O   0  0  0
    2.5287    6.0335    0.0000 C   0  0  0
   -5.2337    1.5525    0.0000 C   0  0  0
   -3.9400   -0.6822    0.0000 C   0  0  0
    1.2232    6.7745    0.0000 C   0  0  0
   -5.2455    0.0706    0.0000 C   0  0  0
   -6.5392    2.3052    0.0000 C   0  0  0
   -7.9976    1.9288    0.0000 C   0  0  0
   -6.9391    3.7636    0.0000 C   0  0  0
   -5.2573    3.0579    0.0000 C   0  0  0
   -8.3975    3.3872    0.0000 O   0  0  0
   -5.2690    4.5633    0.0000 C   0  0  0
   -4.0694    5.4572    0.0000 N   0  0  0
   -6.4922    5.4572    0.0000 N   0  0  0
   -4.5398    6.8921    0.0000 N   0  0  0
   -6.0453    6.8921    0.0000 C   0  0  0
   -7.9271    5.0103    0.0000 C   0  0  0
  1  2  2
  2  3  1
  2  4  1
  3  5  1
  3  6  1
  4  7  1
  5  8  2
  5  9  1
  6 10  1
  7 11  2
  7 12  1
  8 13  1
  9 14  1
  9 15  2
 11 16  1
 12 17  2
 13 18  2
 16 19  2
 16 20  1
 20 21  1
 20 22  1
 20 23  1
 21 24  1
 23 25  1
 25 26  2
 25 27  1
 26 28  1
 27 29  1
 27 30  1
 10 14  1
 15 18  1
 17 19  1
 22 24  1
 28 29  2
M  END
> <COMPOUND_NAMES>
Compound 23 (Page No: 57, Table No: 1)

> <Reference>
WO 2021/021761 A1

> <IC50_range_nM>
101-1000

> <smiles>
Cn1cnnc1CC1(COC1)c1cccc(c1)NC(N1CCOc2cccnc12)=O

$$$$
C20H19F3N6O2
  MOLSOFT 03092310482D

 31 34  0  0  1  0  0  0  0  0999 V2000
    0.0000   -0.0000    0.0000 F   0  0  0
    0.7334    1.3130    0.0000 C   0  0  0
    1.4668    2.6260    0.0000 F   0  0  0
   -0.5796    2.0701    0.0000 C   0  0  0
    2.0227    0.5796    0.0000 C   0  0  2
   -0.7452    3.5723    0.0000 N   0  0  0
   -1.9636    1.4668    0.0000 N   0  0  0
    2.7561    1.8926    0.0000 F   0  0  0
    3.3121   -0.1538    0.0000 C   0  0  0
    1.2657   -0.7097    0.0000 C   0  0  0
   -2.2238    3.8917    0.0000 N   0  0  0
   -2.9809    2.5905    0.0000 C   0  0  0
   -2.2830    0.0118    0.0000 C   0  0  0
    4.6014    0.6033    0.0000 C   0  0  0
    3.3003   -1.6442    0.0000 C   0  0  0
    5.8908   -0.1301    0.0000 C   0  0  0
    4.5896   -2.3776    0.0000 C   0  0  0
    7.1801    0.6269    0.0000 N   0  0  0
    5.8790   -1.6206    0.0000 C   0  0  0
    8.4695   -0.1065    0.0000 C   0  0  0
    8.4577   -1.5969    0.0000 O   0  0  0
    9.7588    0.6506    0.0000 N   0  0  0
    9.7470    2.1647    0.0000 C   0  0  0
   11.0482   -0.0946    0.0000 C   0  0  0
    8.4340    2.9217    0.0000 N   0  0  0
   11.0364    2.9336    0.0000 C   0  0  0
   12.3375    0.6742    0.0000 C   0  0  0
    8.4222    4.4358    0.0000 C   0  0  0
   12.3257    2.2002    0.0000 O   0  0  0
   11.0245    4.4477    0.0000 C   0  0  0
    9.7115    5.1929    0.0000 C   0  0  0
  1  2  1
  2  3  1
  2  4  1
  5  2  1  6  0
  4  6  2
  4  7  1
  5  8  1
  5  9  1
  5 10  1
  6 11  1
  7 12  1
  7 13  1
  9 14  2
  9 15  1
 14 16  1
 15 17  2
 16 18  1
 16 19  2
 18 20  1
 20 21  2
 20 22  1
 22 23  1
 22 24  1
 23 25  2
 23 26  1
 24 27  1
 25 28  1
 26 29  1
 26 30  2
 28 31  2
 11 12  2
 17 19  1
 27 29  1
 30 31  1
M  END
> <COMPOUND_NAMES>
Compound 24 (R) (Page No: 57, Table No: 1)

> <Reference>
WO 2021/021761 A1

> <IC50_range_nM>
101-1000

> <smiles>
C[C@@](c1cccc(c1)NC(N1CCOc2cccnc12)=O)(C(c1nncn1C)(F)F)F

$$$$
C23H25N7O3
  MOLSOFT 03092310482D

 33 38  0  0  0  0  0  0  0  0999 V2000
    0.0000   -0.0000    0.0000 O   0  0  0
   -0.0118    1.5069    0.0000 C   0  0  0
    1.2714    2.2603    0.0000 N   0  0  0
   -1.3185    2.2603    0.0000 N   0  0  0
    1.2596    3.7672    0.0000 C   0  0  0
    2.5546    1.5186    0.0000 C   0  0  0
   -2.6252    1.5304    0.0000 C   0  0  0
   -0.0471    4.5206    0.0000 N   0  0  0
    2.5428    4.5324    0.0000 C   0  0  0
    3.8378    2.2838    0.0000 C   0  0  0
   -3.9320    2.2838    0.0000 C   0  0  0
   -2.6370    0.0471    0.0000 C   0  0  0
   -0.0589    6.0275    0.0000 C   0  0  0
    3.8260    3.8025    0.0000 O   0  0  0
    2.5311    6.0392    0.0000 C   0  0  0
    5.2740    2.6841    0.0000 C   0  0  0
    4.2145    0.8476    0.0000 C   0  0  0
   -5.2387    1.5540    0.0000 C   0  0  0
   -3.9437   -0.6828    0.0000 C   0  0  0
    1.2243    6.7809    0.0000 C   0  0  0
    5.6507    1.2479    0.0000 N   0  0  0
   -5.2505    0.0706    0.0000 C   0  0  0
   -6.5454    2.3074    0.0000 C   0  0  0
   -8.0052    1.9307    0.0000 C   0  0  0
   -6.9457    3.7672    0.0000 C   0  0  0
   -5.2623    3.0608    0.0000 C   0  0  0
   -8.4055    3.3904    0.0000 O   0  0  0
   -5.2740    4.5677    0.0000 C   0  0  0
   -4.0732    5.4624    0.0000 N   0  0  0
   -6.4984    5.4624    0.0000 N   0  0  0
   -4.5441    6.8986    0.0000 N   0  0  0
   -6.0510    6.8986    0.0000 C   0  0  0
   -7.9346    5.0150    0.0000 C   0  0  0
  1  2  2
  2  3  1
  2  4  1
  3  5  1
  3  6  1
  4  7  1
  5  8  2
  5  9  1
  6 10  1
  7 11  2
  7 12  1
  8 13  1
  9 14  1
  9 15  2
 10 16  1
 10 17  1
 11 18  1
 12 19  2
 13 20  2
 16 21  1
 18 22  2
 18 23  1
 23 24  1
 23 25  1
 23 26  1
 24 27  1
 26 28  1
 28 29  2
 28 30  1
 29 31  1
 30 32  1
 30 33  1
 10 14  1
 15 20  1
 17 21  1
 19 22  1
 25 27  1
 31 32  2
M  END
> <COMPOUND_NAMES>
Compound 27 (Page No: 57, Table No: 1)

> <Reference>
WO 2021/021761 A1

> <IC50_range_nM>
<100

> <smiles>
Cn1cnnc1CC1(COC1)c1cccc(c1)NC(N1CC2(CNC2)Oc2cccnc12)=O

$$$$
C24H27N7O3
  MOLSOFT 03092310482D

 34 39  0  0  0  0  0  0  0  0999 V2000
    0.0000   -0.0000    0.0000 O   0  0  0
   -0.0118    1.5096    0.0000 C   0  0  0
    1.2737    2.2644    0.0000 N   0  0  0
   -1.3209    2.2644    0.0000 N   0  0  0
    2.5593    1.5332    0.0000 C   0  0  0
    1.2619    3.7740    0.0000 C   0  0  0
   -2.6300    1.5214    0.0000 C   0  0  0
    2.5475    0.0472    0.0000 N   0  0  0
    3.8448    2.2880    0.0000 C   0  0  0
    2.5475    4.5288    0.0000 C   0  0  0
   -3.9392    2.2762    0.0000 C   0  0  0
   -2.6418    0.0354    0.0000 C   0  0  0
    3.8330   -0.6840    0.0000 C   0  0  0
    3.8330    3.7976    0.0000 O   0  0  0
    5.1303    1.5568    0.0000 C   0  0  0
    3.5971    5.6021    0.0000 C   0  0  0
    1.4742    5.6021    0.0000 C   0  0  0
   -5.2483    1.5332    0.0000 C   0  0  0
   -3.9509   -0.6958    0.0000 C   0  0  0
    5.1185    0.0708    0.0000 C   0  0  0
    2.5239    6.6753    0.0000 N   0  0  0
   -5.2601    0.0472    0.0000 C   0  0  0
   -6.5574    2.2880    0.0000 C   0  0  0
    2.5121    8.1849    0.0000 C   0  0  0
   -8.0080    1.9106    0.0000 C   0  0  0
   -6.9584    3.7387    0.0000 C   0  0  0
   -5.2719    3.0428    0.0000 C   0  0  0
   -8.4090    3.3730    0.0000 O   0  0  0
   -5.2837    4.5524    0.0000 C   0  0  0
   -6.5102    5.4488    0.0000 N   0  0  0
   -4.0807    5.4488    0.0000 N   0  0  0
   -6.0620    6.8876    0.0000 N   0  0  0
   -4.5524    6.8876    0.0000 C   0  0  0
   -2.6654    5.0006    0.0000 C   0  0  0
  1  2  2
  2  3  1
  2  4  1
  3  5  1
  3  6  1
  4  7  1
  5  8  2
  5  9  1
  6 10  1
  7 11  2
  7 12  1
  8 13  1
  9 14  1
  9 15  2
 10 16  1
 10 17  1
 11 18  1
 12 19  2
 13 20  2
 16 21  1
 18 22  2
 18 23  1
 21 24  1
 23 25  1
 23 26  1
 23 27  1
 25 28  1
 27 29  1
 29 30  2
 29 31  1
 30 32  1
 31 33  1
 31 34  1
 10 14  1
 15 20  1
 17 21  1
 19 22  1
 26 28  1
 32 33  2
M  END
> <COMPOUND_NAMES>
Compound 29 (Page No: 57, Table No: 1)

> <Reference>
WO 2021/021761 A1

> <IC50_range_nM>
<100

> <smiles>
CN1CC2(C1)CN(C(Nc1cccc(c1)C1(Cc3nncn3C)COC1)=O)c1c(cccn1)O2

$$$$
C24H27N7O3
  MOLSOFT 03092310482D

 34 39  0  0  1  0  0  0  0  0999 V2000
    0.0000   -0.0000    0.0000 O   0  0  0
   -0.0118    1.5077    0.0000 C   0  0  0
    1.2721    2.2615    0.0000 N   0  0  0
   -1.3192    2.2615    0.0000 N   0  0  0
    1.2603    3.7692    0.0000 C   0  0  0
    2.5560    1.5195    0.0000 C   0  0  0
   -2.6267    1.5312    0.0000 C   0  0  0
   -0.0471    4.5230    0.0000 N   0  0  0
    2.5442    4.5348    0.0000 C   0  0  0
    3.8399    2.2851    0.0000 C   0  0  1
   -3.9341    2.2851    0.0000 C   0  0  0
   -2.6384    0.0471    0.0000 C   0  0  0
   -0.0589    6.0307    0.0000 C   0  0  0
    3.8281    3.8045    0.0000 O   0  0  0
    2.5324    6.0425    0.0000 C   0  0  0
    3.9812    0.8127    0.0000 C   0  0  0
    5.1944    2.9093    0.0000 C   0  0  0
   -5.2415    1.5548    0.0000 C   0  0  0
   -3.9459   -0.6832    0.0000 C   0  0  0
    1.2250    6.7845    0.0000 C   0  0  0
    5.4300    0.5183    0.0000 N   0  0  0
    6.1838    1.8139    0.0000 C   0  0  0
   -5.2533    0.0707    0.0000 C   0  0  0
   -6.5490    2.3086    0.0000 C   0  0  0
   -8.0095    1.9317    0.0000 C   0  0  0
   -6.9494    3.7692    0.0000 C   0  0  0
   -5.2651    3.0625    0.0000 C   0  0  0
   -8.4100    3.3923    0.0000 O   0  0  0
   -5.2769    4.5701    0.0000 C   0  0  0
   -4.0754    5.4653    0.0000 N   0  0  0
   -6.5018    5.4653    0.0000 N   0  0  0
   -4.5466    6.9023    0.0000 N   0  0  0
   -6.0543    6.9023    0.0000 C   0  0  0
   -7.9389    5.0177    0.0000 C   0  0  0
  1  2  2
  2  3  1
  2  4  1
  3  5  1
  3  6  1
  4  7  1
  5  8  2
  5  9  1
 10  6  1
  7 11  2
  7 12  1
  8 13  1
  9 14  1
  9 15  2
 10 16  1
 10 17  1
 11 18  1
 12 19  2
 13 20  2
 16 21  1
 17 22  1
 18 23  2
 18 24  1
 24 25  1
 24 26  1
 24 27  1
 25 28  1
 27 29  1
 29 30  2
 29 31  1
 30 32  1
 31 33  1
 31 34  1
 10 14  1  1  0
 15 20  1
 19 23  1
 21 22  1
 26 28  1
 32 33  2
M  END
> <COMPOUND_NAMES>
Compound 26 (Stereo) (Page No: 57, Table No: 1)

> <Reference>
WO 2021/021761 A1

> <IC50_range_nM>
<100

> <smiles>
Cn1cnnc1CC1(COC1)c1cccc(c1)NC(N1C[C@@]2(CCNC2)Oc2cccnc12)=O

$$$$
C22H22F3N7O2
  MOLSOFT 03092310482D

 34 38  0  0  1  0  0  0  0  0999 V2000
    0.0000   -0.0000    0.0000 F   0  0  0
    0.7336    1.3135    0.0000 C   0  0  0
    1.4673    2.6269    0.0000 F   0  0  0
   -0.5798    2.0708    0.0000 C   0  0  0
    2.0234    0.5798    0.0000 C   0  0  2
   -0.7455    3.5736    0.0000 N   0  0  0
   -1.9643    1.4673    0.0000 N   0  0  0
    2.7571    1.8933    0.0000 F   0  0  0
    3.3132   -0.1538    0.0000 C   0  0  0
    1.2661   -0.7100    0.0000 C   0  0  0
   -2.2246    3.8931    0.0000 N   0  0  0
   -2.9819    2.5914    0.0000 C   0  0  0
   -2.2838    0.0118    0.0000 C   0  0  0
    4.6030    0.6035    0.0000 C   0  0  0
    3.3014   -1.6448    0.0000 C   0  0  0
    5.8928   -0.1302    0.0000 C   0  0  0
    4.5912   -2.3784    0.0000 C   0  0  0
    7.1826    0.6272    0.0000 N   0  0  0
    5.8810   -1.6211    0.0000 C   0  0  0
    8.4724   -0.1065    0.0000 C   0  0  0
    8.4606   -1.5975    0.0000 O   0  0  0
    9.7622    0.6508    0.0000 N   0  0  0
    9.7504    2.1654    0.0000 C   0  0  0
   11.0520   -0.0947    0.0000 C   0  0  0
    8.4369    2.9228    0.0000 N   0  0  0
   11.0402    2.9346    0.0000 C   0  0  0
   12.3418    0.6745    0.0000 C   0  0  0
    8.4251    4.4374    0.0000 C   0  0  0
   12.3300    2.2009    0.0000 O   0  0  0
   11.0284    4.4492    0.0000 C   0  0  0
   13.7855    1.0768    0.0000 C   0  0  0
   12.7205   -0.7691    0.0000 C   0  0  0
    9.7149    5.1947    0.0000 C   0  0  0
   14.1641   -0.3668    0.0000 N   0  0  0
  1  2  1
  2  3  1
  2  4  1
  5  2  1  6  0
  4  6  2
  4  7  1
  5  8  1
  5  9  1
  5 10  1
  6 11  1
  7 12  1
  7 13  1
  9 14  2
  9 15  1
 14 16  1
 15 17  2
 16 18  1
 16 19  2
 18 20  1
 20 21  2
 20 22  1
 22 23  1
 22 24  1
 23 25  2
 23 26  1
 24 27  1
 25 28  1
 26 29  1
 26 30  2
 27 31  1
 27 32  1
 28 33  2
 31 34  1
 11 12  2
 17 19  1
 27 29  1
 30 33  1
 32 34  1
M  END
> <COMPOUND_NAMES>
Compound 28 (R) (Page No: 57, Table No: 1)

> <Reference>
WO 2021/021761 A1

> <IC50_range_nM>
<100

> <smiles>
C[C@@](c1cccc(c1)NC(N1CC2(CNC2)Oc2cccnc12)=O)(C(c1nncn1C)(F)F)F

$$$$
C22H25N5O
  MOLSOFT 03092310482D

 28 31  0  0  1  0  0  0  0  0999 V2000
    0.0000   -0.0000    0.0000 O   0  0  0
   -0.0118    1.5072    0.0000 C   0  0  0
    1.2717    2.2726    0.0000 N   0  0  0
   -1.3188    2.2726    0.0000 N   0  0  0
    1.4130    3.7680    0.0000 C   0  0  0
    2.6258    1.6721    0.0000 C   0  0  0
   -2.6258    1.5308    0.0000 C   0  0  0
    2.8613    4.0859    0.0000 C   0  0  0
    3.6149    2.7907    0.0000 C   0  0  0
   -3.9329    2.2961    0.0000 C   0  0  0
   -2.6376    0.0471    0.0000 C   0  0  0
    3.5914    5.3930    0.0000 C   0  0  0
    5.0986    2.8025    0.0000 C   0  0  0
   -5.2399    1.5543    0.0000 C   0  0  0
   -3.9446   -0.6947    0.0000 C   0  0  0
    5.0750    5.4048    0.0000 C   0  0  0
    2.8378    6.7000    0.0000 C   0  0  0
    5.8287    4.1095    0.0000 C   0  0  0
   -5.2517    0.0707    0.0000 C   0  0  0
   -6.5469    2.3197    0.0000 C   0  0  1
   -7.8540    1.5779    0.0000 C   0  0  0
   -6.5587    3.8269    0.0000 C   0  0  0
   -9.1610    2.3432    0.0000 C   0  0  0
  -10.5387    1.7427    0.0000 N   0  0  0
   -9.3258    3.8387    0.0000 N   0  0  0
  -11.5513    2.8613    0.0000 N   0  0  0
  -10.7977    4.1566    0.0000 C   0  0  0
   -8.2308    4.8513    0.0000 C   0  0  0
  1  2  2
  2  3  1
  2  4  1
  3  5  1
  3  6  1
  4  7  1
  5  8  1
  6  9  1
  7 10  2
  7 11  1
  8 12  1
  9 13  1
 10 14  1
 11 15  2
 12 16  2
 12 17  1
 13 18  2
 14 19  2
 20 14  1
 20 21  1
 20 22  1  1  0
 21 23  1
 23 24  2
 23 25  1
 24 26  1
 25 27  1
 25 28  1
  8  9  2
 15 19  1
 16 18  1
 26 27  2
M  END
> <COMPOUND_NAMES>
Compound 13 (R) (Page No: 56, Table No: 1)

> <Reference>
WO 2021/021761 A1

> <IC50_range_nM>
101-1000

> <smiles>
Cc1cccc2CN(Cc12)C(Nc1cccc(c1)[C@H](C)Cc1nncn1C)=O

$$$$
C20H19BrN4O
  MOLSOFT 03092310482D

 26 29  0  0  1  0  0  0  0  0999 V2000
    0.0000   -0.0000    0.0000 Br  0  0  0
   -1.0097    1.1271    0.0000 C   0  0  0
   -2.4891    0.8219    0.0000 C   0  0  0
   -0.5636    2.5595    0.0000 C   0  0  0
   -3.4988    1.9490    0.0000 C   0  0  0
   -3.2522   -0.4696    0.0000 C   0  0  0
   -1.5733    3.6866    0.0000 C   0  0  0
   -4.8842    1.3502    0.0000 C   0  0  0
   -3.0526    3.3814    0.0000 C   0  0  0
   -4.7316   -0.1409    0.0000 N   0  0  0
   -6.1992    2.1134    0.0000 O   0  0  0
   -5.8587   -1.1271    0.0000 C   0  0  0
   -5.5534   -2.5830    0.0000 C   0  0  0
   -7.2911   -0.6575    0.0000 C   0  0  0
   -6.6806   -3.5692    0.0000 C   0  0  0
   -8.4182   -1.6437    0.0000 C   0  0  0
   -8.1129   -3.0996    0.0000 C   0  0  0
   -6.3753   -5.0251    0.0000 C   0  0  1
   -4.9664   -5.4713    0.0000 C   0  0  0
   -7.5024   -6.0113    0.0000 C   0  0  0
   -4.6611   -6.9271    0.0000 C   0  0  0
   -3.2992   -7.5259    0.0000 N   0  0  0
   -5.6708   -8.0308    0.0000 N   0  0  0
   -3.4636   -9.0053    0.0000 N   0  0  0
   -4.9312   -9.3105    0.0000 C   0  0  0
   -7.1737   -7.8664    0.0000 C   0  0  0
  1  2  1
  2  3  2
  2  4  1
  3  5  1
  3  6  1
  4  7  2
  5  8  1
  5  9  2
  6 10  1
  8 11  2
 10 12  1
 12 13  2
 12 14  1
 13 15  1
 14 16  2
 15 17  2
 18 15  1
 18 19  1
 18 20  1  1  0
 19 21  1
 21 22  2
 21 23  1
 22 24  1
 23 25  1
 23 26  1
  7  9  1
  8 10  1
 16 17  1
 24 25  2
M  END
> <COMPOUND_NAMES>
Example 256 (R) (Page No: 471)

> <Reference>
WO2019148005

> <IC50_range_nM>
101-300

> <smiles>
C[C@H](Cc1nncn1C)c1cccc(c1)N1Cc2c(cccc2[Br])C1=O

$$$$
C22H23N5O
  MOLSOFT 03092310482D

 28 32  0  0  1  0  0  0  0  0999 V2000
    0.0000   -0.0000    0.0000 O   0  0  0
    1.2984   -0.7436    0.0000 C   0  0  0
    1.4400   -2.2309    0.0000 N   0  0  0
    2.6676   -0.1180    0.0000 C   0  0  0
    0.3069   -3.2224    0.0000 C   0  0  0
    2.9037   -2.5378    0.0000 C   0  0  0
    3.6591   -1.2276    0.0000 C   0  0  0
    3.1161    1.3220    0.0000 C   0  0  0
    0.6138   -4.6860    0.0000 C   0  0  0
   -1.1331   -2.7502    0.0000 C   0  0  0
    5.1227   -0.8971    0.0000 C   0  0  0
    4.5798    1.6525    0.0000 C   0  0  0
   -0.5194   -5.6775    0.0000 C   0  0  0
   -2.2663   -3.7417    0.0000 C   0  0  0
    5.5713    0.5430    0.0000 N   0  0  0
    6.1142   -2.0066    0.0000 C   0  0  0
   -1.9594   -5.2054    0.0000 C   0  0  0
   -0.2125   -7.1411    0.0000 C   0  0  1
    7.5306   -2.4551    0.0000 C   0  0  0
    6.4211   -3.4702    0.0000 C   0  0  0
    1.2040   -7.5897    0.0000 C   0  0  0
   -1.3456   -8.1326    0.0000 C   0  0  0
    1.5109   -9.0533    0.0000 C   0  0  0
    2.8801   -9.6553    0.0000 N   0  0  0
    0.4957  -10.1628    0.0000 N   0  0  0
    2.7148  -11.1425    0.0000 N   0  0  0
    1.2394  -11.4494    0.0000 C   0  0  0
   -1.0151   -9.9976    0.0000 C   0  0  0
  1  2  2
  2  3  1
  2  4  1
  3  5  1
  3  6  1
  4  7  2
  4  8  1
  5  9  2
  5 10  1
  7 11  1
  8 12  2
  9 13  1
 10 14  2
 11 15  2
 11 16  1
 13 17  2
 18 13  1
 16 19  1
 16 20  1
 18 21  1
 18 22  1  1  0
 21 23  1
 23 24  2
 23 25  1
 24 26  1
 25 27  1
 25 28  1
  6  7  1
 12 15  1
 14 17  1
 19 20  1
 26 27  2
M  END
> <COMPOUND_NAMES>
Example 257 (R) (Page No: 471)

> <Reference>
WO2019148005

> <IC50_range_nM>
101-300

> <smiles>
C[C@H](Cc1nncn1C)c1cccc(c1)N1Cc2c(ccnc2C2CC2)C1=O

$$$$
C23H25N5O
  MOLSOFT 03092310482D

 29 33  0  0  1  0  0  0  0  0999 V2000
    0.0000   -0.0000    0.0000 O   0  0  0
    1.2922   -0.7469    0.0000 C   0  0  0
    1.4344   -2.2406    0.0000 N   0  0  0
    2.6555   -0.1185    0.0000 C   0  0  0
    0.2964   -3.2364    0.0000 C   0  0  0
    2.8926   -2.5369    0.0000 C   0  0  0
    3.6513   -1.2329    0.0000 C   0  0  0
    3.1059    1.3277    0.0000 C   0  0  0
    0.5927   -4.6945    0.0000 C   0  0  0
   -1.1499   -2.7622    0.0000 C   0  0  0
    5.1094   -0.9128    0.0000 C   0  0  0
    4.5641    1.6478    0.0000 C   0  0  0
   -0.5335   -5.6903    0.0000 C   0  0  0
   -2.2761   -3.7580    0.0000 C   0  0  0
    5.5599    0.5335    0.0000 N   0  0  0
    6.1052   -2.0272    0.0000 C   0  0  0
   -1.9797   -5.2161    0.0000 C   0  0  0
   -0.2371   -7.1484    0.0000 C   0  0  1
    7.5989   -2.0983    0.0000 C   0  0  0
    6.0104   -3.5209    0.0000 C   0  0  0
    1.1855   -7.5989    0.0000 C   0  0  0
   -1.3633   -8.1442    0.0000 C   0  0  0
    7.5041   -3.5920    0.0000 C   0  0  0
    1.4818   -9.0570    0.0000 C   0  0  0
    2.8451   -9.6616    0.0000 N   0  0  0
    0.4623  -10.1714    0.0000 N   0  0  0
    2.6792  -11.1435    0.0000 N   0  0  0
    1.2092  -11.4636    0.0000 C   0  0  0
   -1.0551  -10.0054    0.0000 C   0  0  0
  1  2  2
  2  3  1
  2  4  1
  3  5  1
  3  6  1
  4  7  2
  4  8  1
  5  9  2
  5 10  1
  7 11  1
  8 12  2
  9 13  1
 10 14  2
 11 15  2
 11 16  1
 13 17  2
 18 13  1
 16 19  1
 16 20  1
 18 21  1
 18 22  1  1  0
 19 23  1
 21 24  1
 24 25  2
 24 26  1
 25 27  1
 26 28  1
 26 29  1
  6  7  1
 12 15  1
 14 17  1
 20 23  1
 27 28  2
M  END
> <COMPOUND_NAMES>
Example 258 (R) (Page No: 472)

> <Reference>
WO2019148005

> <IC50_range_nM>
101-300

> <smiles>
C[C@H](Cc1nncn1C)c1cccc(c1)N1Cc2c(ccnc2C2CCC2)C1=O

$$$$
C23H25N5O
  MOLSOFT 03092310482D

 29 33  0  0  1  0  0  0  0  0999 V2000
    0.0000   -0.0000    0.0000 O   0  0  0
    1.2982   -0.7435    0.0000 C   0  0  0
    1.4398   -2.2305    0.0000 N   0  0  0
    2.6672   -0.1180    0.0000 C   0  0  0
    0.3068   -3.2218    0.0000 C   0  0  0
    2.9032   -2.5373    0.0000 C   0  0  0
    3.6585   -1.2274    0.0000 C   0  0  0
    3.1156    1.3218    0.0000 C   0  0  0
    0.6137   -4.6852    0.0000 C   0  0  0
   -1.1329   -2.7498    0.0000 C   0  0  0
    5.1219   -0.8969    0.0000 C   0  0  0
    4.5790    1.6522    0.0000 C   0  0  0
   -0.5193   -5.6765    0.0000 C   0  0  0
   -2.2659   -3.7411    0.0000 C   0  0  0
    5.5703    0.5429    0.0000 N   0  0  0
    6.1132   -2.0063    0.0000 C   0  0  0
    5.0275    3.0920    0.0000 C   0  0  0
   -1.9591   -5.2045    0.0000 C   0  0  0
   -0.2124   -7.1399    0.0000 C   0  0  1
    7.5294   -2.4547    0.0000 C   0  0  0
    6.4200   -3.4697    0.0000 C   0  0  0
    1.2038   -7.5884    0.0000 C   0  0  0
   -1.3454   -8.1313    0.0000 C   0  0  0
    1.5106   -9.0518    0.0000 C   0  0  0
    2.8796   -9.6537    0.0000 N   0  0  0
    0.4957  -10.1611    0.0000 N   0  0  0
    2.7144  -11.1407    0.0000 N   0  0  0
    1.2392  -11.4475    0.0000 C   0  0  0
   -1.0149   -9.9959    0.0000 C   0  0  0
  1  2  2
  2  3  1
  2  4  1
  3  5  1
  3  6  1
  4  7  2
  4  8  1
  5  9  2
  5 10  1
  7 11  1
  8 12  2
  9 13  1
 10 14  2
 11 15  2
 11 16  1
 12 17  1
 13 18  2
 19 13  1
 16 20  1
 16 21  1
 19 22  1
 19 23  1  1  0
 22 24  1
 24 25  2
 24 26  1
 25 27  1
 26 28  1
 26 29  1
  6  7  1
 12 15  1
 14 18  1
 20 21  1
 27 28  2
M  END
> <COMPOUND_NAMES>
Example 372 (R) (Page No: 549)

> <Reference>
WO2019148005

> <IC50_range_nM>
301-1000

> <smiles>
Cc1cc2C(N(Cc2c(C2CC2)n1)c1cccc(c1)[C@H](C)Cc1nncn1C)=O

$$$$
C25H27N5O
  MOLSOFT 03092310482D

 31 36  0  0  1  0  0  0  0  0999 V2000
    0.0000   -0.0000    0.0000 O   0  0  0
    1.2972   -0.7429    0.0000 C   0  0  0
    1.4387   -2.2288    0.0000 N   0  0  0
    2.6651   -0.1179    0.0000 C   0  0  0
    0.3066   -3.2193    0.0000 C   0  0  0
    2.9009   -2.5354    0.0000 C   0  0  0
    3.6556   -1.2264    0.0000 C   0  0  0
    3.1132    1.3207    0.0000 C   0  0  0
    0.6132   -4.6816    0.0000 C   0  0  0
   -1.1321   -2.7476    0.0000 C   0  0  0
    5.1179   -0.8962    0.0000 C   0  0  0
    4.5754    1.6509    0.0000 C   0  0  0
   -0.5189   -5.6721    0.0000 C   0  0  0
   -2.2641   -3.7382    0.0000 C   0  0  0
    5.5660    0.5424    0.0000 N   0  0  0
    6.1084   -2.0047    0.0000 C   0  0  0
    5.0236    3.0896    0.0000 C   0  0  0
   -1.9575   -5.2004    0.0000 C   0  0  0
   -0.2123   -7.1344    0.0000 C   0  0  1
    7.5235   -2.4528    0.0000 C   0  0  0
    6.4150   -3.4670    0.0000 C   0  0  0
    4.6934    4.5754    0.0000 C   0  0  0
    6.1320    4.1037    0.0000 C   0  0  0
    1.2028   -7.5825    0.0000 C   0  0  0
   -1.3443   -8.1249    0.0000 C   0  0  0
    1.5094   -9.0447    0.0000 C   0  0  0
    2.8773   -9.6462    0.0000 N   0  0  0
    0.4953  -10.1532    0.0000 N   0  0  0
    2.7122  -11.1320    0.0000 N   0  0  0
    1.2382  -11.4386    0.0000 C   0  0  0
   -1.0141   -9.9881    0.0000 C   0  0  0
  1  2  2
  2  3  1
  2  4  1
  3  5  1
  3  6  1
  4  7  2
  4  8  1
  5  9  2
  5 10  1
  7 11  1
  8 12  2
  9 13  1
 10 14  2
 11 15  2
 11 16  1
 12 17  1
 13 18  2
 19 13  1
 16 20  1
 16 21  1
 17 22  1
 17 23  1
 19 24  1
 19 25  1  1  0
 24 26  1
 26 27  2
 26 28  1
 27 29  1
 28 30  1
 28 31  1
  6  7  1
 12 15  1
 14 18  1
 20 21  1
 22 23  1
 29 30  2
M  END
> <COMPOUND_NAMES>
Example 370 (R) (Page No: 548)

> <Reference>
WO2019148005

> <IC50_range_nM>
101-300

> <smiles>
C[C@H](Cc1nncn1C)c1cccc(c1)N1Cc2c(cc(C3CC3)nc2C2CC2)C1=O

$$$$
C22H25N5O
  MOLSOFT 03092310482D

 28 31  0  0  1  0  0  0  0  0999 V2000
    0.0000   -0.0000    0.0000 O   0  0  0
   -0.0118    1.5101    0.0000 C   0  0  0
   -1.2387    2.4067    0.0000 N   0  0  0
    1.1915    2.4067    0.0000 C   0  0  0
   -2.6780    1.9584    0.0000 C   0  0  0
   -0.7904    3.8460    0.0000 C   0  0  0
    0.7196    3.8460    0.0000 C   0  0  0
    2.6426    2.1117    0.0000 C   0  0  0
   -2.9966    0.5073    0.0000 C   0  0  0
   -3.7988    2.9730    0.0000 C   0  0  0
    1.7106    4.9667    0.0000 C   0  0  0
    3.6336    3.2325    0.0000 C   0  0  0
   -4.4359    0.0590    0.0000 C   0  0  0
   -5.2381    2.5247    0.0000 C   0  0  0
    3.1617    4.6718    0.0000 N   0  0  0
    1.2387    6.4060    0.0000 C   0  0  0
   -5.5566    1.0736    0.0000 C   0  0  0
   -4.7544   -1.3921    0.0000 C   0  0  1
    2.2297    7.5268    0.0000 C   0  0  0
   -0.2359    6.7246    0.0000 C   0  0  0
   -6.1937   -1.8404    0.0000 C   0  0  0
   -3.6572   -2.3831    0.0000 C   0  0  0
   -6.5122   -3.2915    0.0000 C   0  0  0
   -5.5212   -4.3887    0.0000 N   0  0  0
   -7.8925   -3.8932    0.0000 N   0  0  0
   -6.2881   -5.6746    0.0000 N   0  0  0
   -7.7509   -5.3679    0.0000 C   0  0  0
   -9.2020   -3.1263    0.0000 C   0  0  0
  1  2  2
  2  3  1
  2  4  1
  3  5  1
  3  6  1
  4  7  2
  4  8  1
  5  9  2
  5 10  1
  7 11  1
  8 12  2
  9 13  1
 10 14  2
 11 15  2
 11 16  1
 13 17  2
 18 13  1
 16 19  1
 16 20  1
 18 21  1
 18 22  1  6  0
 21 23  1
 23 24  2
 23 25  1
 24 26  1
 25 27  1
 25 28  1
  6  7  1
 12 15  1
 14 17  1
 26 27  2
M  END
> <COMPOUND_NAMES>
Example 259 (R) (Page No: 473)

> <Reference>
WO2019148005

> <IC50_range_nM>
301-1000

> <smiles>
CC(C)c1c2CN(C(c2ccn1)=O)c1cccc(c1)[C@H](C)Cc1nncn1C

$$$$
C24H25N5O2
  MOLSOFT 03092310482D

 31 36  0  0  0  0  0  0  0  0999 V2000
    0.0000   -0.0000    0.0000 O   0  0  0
    1.2966   -0.7426    0.0000 C   0  0  0
    1.4380   -2.2278    0.0000 N   0  0  0
    2.6639   -0.1179    0.0000 C   0  0  0
    0.3065   -3.2179    0.0000 C   0  0  0
    2.8996   -2.5342    0.0000 C   0  0  0
    3.6540   -1.2259    0.0000 C   0  0  0
    3.1118    1.3202    0.0000 C   0  0  0
    0.6129   -4.6795    0.0000 C   0  0  0
   -1.1316   -2.7464    0.0000 C   0  0  0
    5.1156   -0.8958    0.0000 C   0  0  0
    4.5734    1.6502    0.0000 C   0  0  0
   -0.5186   -5.6696    0.0000 C   0  0  0
   -2.2631   -3.7365    0.0000 C   0  0  0
    5.5635    0.5422    0.0000 N   0  0  0
    6.1057   -2.0038    0.0000 C   0  0  0
    5.0213    3.0882    0.0000 C   0  0  0
   -1.9567   -5.1981    0.0000 C   0  0  0
   -0.2122   -7.1312    0.0000 C   0  0  0
    7.5202   -2.4517    0.0000 C   0  0  0
    6.4122   -3.4654    0.0000 C   0  0  0
    1.0373   -7.9445    0.0000 C   0  0  0
   -1.0491   -8.3806    0.0000 C   0  0  0
   -1.6502   -6.6597    0.0000 C   0  0  0
    0.2004   -9.1939    0.0000 O   0  0  0
   -2.7818   -7.6498    0.0000 C   0  0  0
   -4.2669   -7.3198    0.0000 N   0  0  0
   -2.6403   -9.1350    0.0000 N   0  0  0
   -5.0331   -8.6164    0.0000 N   0  0  0
   -4.0312   -9.7362    0.0000 C   0  0  0
   -1.3437   -9.8776    0.0000 C   0  0  0
  1  2  2
  2  3  1
  2  4  1
  3  5  1
  3  6  1
  4  7  2
  4  8  1
  5  9  2
  5 10  1
  7 11  1
  8 12  2
  9 13  1
 10 14  2
 11 15  2
 11 16  1
 12 17  1
 13 18  2
 13 19  1
 16 20  1
 16 21  1
 19 22  1
 19 23  1
 19 24  1
 22 25  1
 24 26  1
 26 27  2
 26 28  1
 27 29  1
 28 30  1
 28 31  1
  6  7  1
 12 15  1
 14 18  1
 20 21  1
 23 25  1
 29 30  2
M  END
> <COMPOUND_NAMES>
Example 692 (Page No: 769)

> <Reference>
WO2019148005

> <IC50_range_nM>
<100

> <smiles>
Cc1cc2C(N(Cc2c(C2CC2)n1)c1cccc(c1)C1(Cc2nncn2C)COC1)=O

$$$$
C26H27N5O2
  MOLSOFT 03092310482D

 33 39  0  0  0  0  0  0  0  0999 V2000
    0.0000   -0.0000    0.0000 O   0  0  0
    1.2958   -0.7421    0.0000 C   0  0  0
    1.4371   -2.2264    0.0000 N   0  0  0
    2.6622   -0.1178    0.0000 C   0  0  0
    0.3063   -3.2159    0.0000 C   0  0  0
    2.8978   -2.5326    0.0000 C   0  0  0
    3.6517   -1.2251    0.0000 C   0  0  0
    3.1099    1.3193    0.0000 C   0  0  0
    0.6125   -4.6766    0.0000 C   0  0  0
   -1.1309   -2.7447    0.0000 C   0  0  0
    5.1124   -0.8953    0.0000 C   0  0  0
    4.5705    1.6492    0.0000 C   0  0  0
   -0.5183   -5.6661    0.0000 C   0  0  0
   -2.2617   -3.7342    0.0000 C   0  0  0
    5.5600    0.5419    0.0000 N   0  0  0
    6.1019   -2.0026    0.0000 C   0  0  0
    5.0182    3.0863    0.0000 C   0  0  0
   -1.9554   -5.1949    0.0000 C   0  0  0
   -0.2120   -7.1268    0.0000 C   0  0  0
    7.5155   -2.4502    0.0000 C   0  0  0
    6.4082   -3.4633    0.0000 C   0  0  0
    4.6883    4.5705    0.0000 C   0  0  0
    6.1255    4.0994    0.0000 C   0  0  0
    1.0366   -7.9396    0.0000 C   0  0  0
   -1.0484   -8.3754    0.0000 C   0  0  0
   -1.6492   -6.6556    0.0000 C   0  0  0
    0.2003   -9.1882    0.0000 O   0  0  0
   -2.7800   -7.6451    0.0000 C   0  0  0
   -4.2643   -7.3152    0.0000 N   0  0  0
   -2.6387   -9.1293    0.0000 N   0  0  0
   -5.0300   -8.6110    0.0000 N   0  0  0
   -4.0287   -9.7301    0.0000 C   0  0  0
   -1.3429   -9.8714    0.0000 C   0  0  0
  1  2  2
  2  3  1
  2  4  1
  3  5  1
  3  6  1
  4  7  2
  4  8  1
  5  9  2
  5 10  1
  7 11  1
  8 12  2
  9 13  1
 10 14  2
 11 15  2
 11 16  1
 12 17  1
 13 18  2
 13 19  1
 16 20  1
 16 21  1
 17 22  1
 17 23  1
 19 24  1
 19 25  1
 19 26  1
 24 27  1
 26 28  1
 28 29  2
 28 30  1
 29 31  1
 30 32  1
 30 33  1
  6  7  1
 12 15  1
 14 18  1
 20 21  1
 22 23  1
 25 27  1
 31 32  2
M  END
> <COMPOUND_NAMES>
Example 568 (Page No: 696)

> <Reference>
WO2019148005

> <IC50_range_nM>
<100

> <smiles>
Cn1cnnc1CC1(COC1)c1cccc(c1)N1Cc2c(cc(C3CC3)nc2C2CC2)C1=O

$$$$
C24H23F2N5O2
  MOLSOFT 03092310482D

 33 38  0  0  0  0  0  0  0  0999 V2000
    0.0000   -0.0000    0.0000 F   0  0  0
    0.4405    1.4571    0.0000 C   0  0  0
    0.6946    2.3381    0.0000 F   0  0  0
   -1.0166    1.9315    0.0000 C   0  0  0
    2.5753    0.7794    0.0000 C   0  0  0
   -1.4910    3.3885    0.0000 N   0  0  0
   -2.2534    1.0674    0.0000 N   0  0  0
    2.3720    1.6773    0.0000 C   0  0  0
    3.8290   -0.0169    0.0000 C   0  0  0
    1.7451   -0.4744    0.0000 C   0  0  0
   -3.0158    3.4055    0.0000 N   0  0  0
   -3.4902    1.9654    0.0000 C   0  0  0
   -2.2703   -0.4236    0.0000 C   0  0  0
    3.4732    2.7108    0.0000 C   0  0  0
    0.9149    2.1517    0.0000 C   0  0  0
    2.9989   -1.2707    0.0000 O   0  0  0
    3.1344    4.2018    0.0000 C   0  0  0
    0.5930    3.6427    0.0000 C   0  0  0
    4.2357    5.2353    0.0000 N   0  0  0
    1.6773    4.6762    0.0000 C   0  0  0
    4.0662    6.7601    0.0000 C   0  0  0
    5.6927    4.9303    0.0000 C   0  0  0
    2.7447    7.5395    0.0000 O   0  0  0
    5.4217    7.3870    0.0000 C   0  0  0
    6.4382    6.2518    0.0000 C   0  0  0
    5.8622    8.8441    0.0000 C   0  0  0
    7.8953    6.5907    0.0000 C   0  0  0
    7.3192    9.1829    0.0000 C   0  0  0
    8.3358    8.0478    0.0000 N   0  0  0
    8.8949    5.4894    0.0000 C   0  0  0
    7.7597   10.6400    0.0000 C   0  0  0
   10.3181    5.0489    0.0000 C   0  0  0
    9.1999    4.0324    0.0000 C   0  0  0
  1  2  1
  2  3  1
  2  4  1
  2  5  1
  4  6  2
  4  7  1
  5  8  1
  5  9  1
  5 10  1
  6 11  1
  7 12  1
  7 13  1
  8 14  2
  8 15  1
  9 16  1
 14 17  1
 15 18  2
 17 19  1
 17 20  2
 19 21  1
 19 22  1
 21 23  2
 21 24  1
 22 25  1
 24 26  1
 25 27  1
 26 28  2
 27 29  2
 27 30  1
 28 31  1
 30 32  1
 30 33  1
 10 16  1
 11 12  2
 18 20  1
 24 25  2
 28 29  1
 32 33  1
M  END
> <COMPOUND_NAMES>
Example 677 (Page No: 759)

> <Reference>
WO2019148005

> <IC50_range_nM>
301-1000

> <smiles>
Cc1cc2C(N(Cc2c(C2CC2)n1)c1cccc(c1)C1(COC1)C(c1nncn1C)(F)F)=O

$$$$
C20H18F3N5O
  MOLSOFT 03092310482D

 29 32  0  0  1  0  0  0  0  0999 V2000
    0.0000   -0.0000    0.0000 F   0  0  0
    1.1043    1.0103    0.0000 C   0  0  0
    2.0911   -0.0940    0.0000 F   0  0  0
    2.2086    2.0206    0.0000 F   0  0  0
    0.0940    2.1381    0.0000 C   0  0  0
    0.5404    3.5713    0.0000 N   0  0  0
   -1.3862    1.8327    0.0000 C   0  0  0
   -0.4699    4.6991    0.0000 C   0  0  0
   -2.3965    2.9604    0.0000 C   0  0  0
   -2.1498    0.5404    0.0000 C   0  0  0
   -1.9501    4.3937    0.0000 C   0  0  0
   -3.7828    2.3613    0.0000 C   0  0  0
   -3.6301    0.8693    0.0000 N   0  0  0
   -5.0985    3.1249    0.0000 O   0  0  0
   -4.7579   -0.1175    0.0000 C   0  0  0
   -4.4524   -1.5742    0.0000 C   0  0  0
   -6.1911    0.3524    0.0000 C   0  0  0
   -5.5802   -2.5610    0.0000 C   0  0  0
   -7.3189   -0.6344    0.0000 C   0  0  0
   -7.0134   -2.0911    0.0000 C   0  0  0
   -5.2748   -4.0177    0.0000 C   0  0  1
   -3.8650   -4.4642    0.0000 C   0  0  0
   -6.4025   -5.0046    0.0000 C   0  0  0
   -3.5596   -5.9209    0.0000 C   0  0  0
   -2.1968   -6.5200    0.0000 N   0  0  0
   -4.5699   -7.0252    0.0000 N   0  0  0
   -2.3613   -8.0002    0.0000 N   0  0  0
   -3.8298   -8.3057    0.0000 C   0  0  0
   -6.0736   -6.8607    0.0000 C   0  0  0
  1  2  1
  2  3  1
  2  4  1
  2  5  1
  5  6  2
  5  7  1
  6  8  1
  7  9  2
  7 10  1
  8 11  2
  9 12  1
 10 13  1
 12 14  2
 13 15  1
 15 16  2
 15 17  1
 16 18  1
 17 19  2
 18 20  2
 21 18  1
 21 22  1
 21 23  1  1  0
 22 24  1
 24 25  2
 24 26  1
 25 27  1
 26 28  1
 26 29  1
  9 11  1
 12 13  1
 19 20  1
 27 28  2
M  END
> <COMPOUND_NAMES>
Example 371 (R) (Page No: 549)

> <Reference>
WO2019148005

> <IC50_range_nM>
101-300

> <smiles>
C[C@H](Cc1nncn1C)c1cccc(c1)N1Cc2c(ccnc2C(F)(F)F)C1=O

$$$$
C20H16F3N5O
  MOLSOFT 03092310482D

 29 33  0  0  1  0  0  0  0  0999 V2000
    0.0000   -0.0000    0.0000 F   0  0  0
    1.0989    1.0162    0.0000 C   0  0  0
    2.0914   -0.0827    0.0000 F   0  0  0
    2.1977    2.0323    0.0000 F   0  0  0
    0.0827    2.1387    0.0000 C   0  0  0
    0.5317    3.5802    0.0000 N   0  0  0
   -1.3943    1.8433    0.0000 C   0  0  0
   -0.4844    4.7027    0.0000 C   0  0  0
   -2.4104    2.9658    0.0000 C   0  0  0
   -2.1505    0.5553    0.0000 C   0  0  0
   -1.9614    4.4073    0.0000 C   0  0  0
   -3.7929    2.3632    0.0000 C   0  0  0
   -3.6274    0.8744    0.0000 N   0  0  0
   -5.1044    3.1194    0.0000 O   0  0  0
   -4.7499   -0.1182    0.0000 C   0  0  0
   -4.4546   -1.5715    0.0000 C   0  0  0
   -6.1915    0.3545    0.0000 C   0  0  0
   -5.5771   -2.5640    0.0000 C   0  0  0
   -7.3140   -0.6381    0.0000 C   0  0  0
   -7.0186   -2.0914    0.0000 C   0  0  0
   -5.2817   -4.0174    0.0000 C   0  0  2
   -4.2891   -5.1162    0.0000 C   0  0  1
   -5.7543   -5.4353    0.0000 C   0  0  0
   -2.8712   -5.5652    0.0000 C   0  0  0
   -2.4222   -6.9831    0.0000 N   0  0  0
   -1.6660   -4.6672    0.0000 N   0  0  0
   -0.9334   -6.9713    0.0000 N   0  0  0
   -0.4608   -5.5416    0.0000 C   0  0  0
   -1.6778   -3.1548    0.0000 C   0  0  0
  1  2  1
  2  3  1
  2  4  1
  2  5  1
  5  6  2
  5  7  1
  6  8  1
  7  9  2
  7 10  1
  8 11  2
  9 12  1
 10 13  1
 12 14  2
 13 15  1
 15 16  2
 15 17  1
 16 18  1
 17 19  2
 18 20  2
 21 18  1  6  0
 21 22  1
 21 23  1
 22 24  1  6  0
 24 25  2
 24 26  1
 25 27  1
 26 28  1
 26 29  1
  9 11  1
 12 13  1
 19 20  1
 22 23  1
 27 28  2
M  END
> <COMPOUND_NAMES>
Example 369 (Stereo) (Page No: 548)

> <Reference>
WO2019148005

> <IC50_range_nM>
301-1000

> <smiles>
Cn1cnnc1[C@@H]1C[C@@H]1c1cccc(c1)N1Cc2c(ccnc2C(F)(F)F)C1=O

$$$$
C22H24FN5O
  MOLSOFT 03092310482D

 29 32  0  0  1  0  0  0  0  0999 V2000
    0.0000   -0.0000    0.0000 F   0  0  0
   -1.1277   -0.9867    0.0000 C   0  0  0
   -2.1379    0.1410    0.0000 C   0  0  0
   -2.2554   -1.9735    0.0000 C   0  0  0
   -0.1410   -2.0909    0.0000 C   0  0  0
   -1.6916    1.5741    0.0000 N   0  0  0
   -3.6180   -0.1645    0.0000 C   0  0  0
   -2.7018    2.7018    0.0000 C   0  0  0
   -4.6283    0.9632    0.0000 C   0  0  0
   -4.3816   -1.4566    0.0000 C   0  0  0
   -4.1819    2.3964    0.0000 C   0  0  0
   -6.0144    0.3642    0.0000 C   0  0  0
   -5.8617   -1.1277    0.0000 N   0  0  0
   -7.3301    1.1277    0.0000 O   0  0  0
   -6.9894   -2.1144    0.0000 C   0  0  0
   -6.6840   -3.5711    0.0000 C   0  0  0
   -8.4225   -1.6446    0.0000 C   0  0  0
   -7.8117   -4.5578    0.0000 C   0  0  0
   -9.5502   -2.6313    0.0000 C   0  0  0
   -9.2448   -4.0879    0.0000 C   0  0  0
   -7.5063   -6.0144    0.0000 C   0  0  1
   -6.0966   -6.4608    0.0000 C   0  0  0
   -8.6340   -7.0011    0.0000 C   0  0  0
   -5.7912   -7.9174    0.0000 C   0  0  0
   -4.4286   -8.5165    0.0000 N   0  0  0
   -6.8014   -9.0216    0.0000 N   0  0  0
   -4.5930   -9.9966    0.0000 N   0  0  0
   -6.0614  -10.3020    0.0000 C   0  0  0
   -8.3050   -8.8572    0.0000 C   0  0  0
  1  2  1
  2  3  1
  2  4  1
  2  5  1
  3  6  2
  3  7  1
  6  8  1
  7  9  2
  7 10  1
  8 11  2
  9 12  1
 10 13  1
 12 14  2
 13 15  1
 15 16  2
 15 17  1
 16 18  1
 17 19  2
 18 20  2
 21 18  1
 21 22  1
 21 23  1  1  0
 22 24  1
 24 25  2
 24 26  1
 25 27  1
 26 28  1
 26 29  1
  9 11  1
 12 13  1
 19 20  1
 27 28  2
M  END
> <COMPOUND_NAMES>
Example 373 (R) (Page No: 550)

> <Reference>
WO2019148005

> <IC50_range_nM>
301-1000

> <smiles>
C[C@H](Cc1nncn1C)c1cccc(c1)N1Cc2c(ccnc2C(C)(C)F)C1=O

$$$$
C21H18F3N5O2
  MOLSOFT 03092310482D

 31 35  0  0  0  0  0  0  0  0999 V2000
    0.0000   -0.0000    0.0000 F   0  0  0
    1.1021    1.0083    0.0000 C   0  0  0
    2.0986   -0.0938    0.0000 F   0  0  0
    2.2041    2.0282    0.0000 F   0  0  0
    0.0821    2.1338    0.0000 C   0  0  0
    0.5276    3.5641    0.0000 N   0  0  0
   -1.3952    1.8289    0.0000 C   0  0  0
   -0.4924    4.6896    0.0000 C   0  0  0
   -2.4151    2.9544    0.0000 C   0  0  0
   -2.1572    0.5393    0.0000 C   0  0  0
   -1.9696    4.3848    0.0000 C   0  0  0
   -3.7986    2.3565    0.0000 C   0  0  0
   -3.6344    0.8676    0.0000 N   0  0  0
   -5.1117    3.1186    0.0000 O   0  0  0
   -4.7599   -0.1290    0.0000 C   0  0  0
   -4.4551   -1.5827    0.0000 C   0  0  0
   -6.1903    0.3400    0.0000 C   0  0  0
   -5.5806   -2.5676    0.0000 C   0  0  0
   -7.3158   -0.6565    0.0000 C   0  0  0
   -7.0227   -2.0986    0.0000 C   0  0  0
   -5.2758   -4.0213    0.0000 C   0  0  0
   -4.0331   -4.8303    0.0000 C   0  0  0
   -6.1082   -5.2641    0.0000 C   0  0  0
   -6.7061   -3.5524    0.0000 C   0  0  0
   -4.8655   -6.0730    0.0000 O   0  0  0
   -7.8316   -4.5489    0.0000 C   0  0  0
   -9.3088   -4.2206    0.0000 N   0  0  0
   -7.6909   -6.0261    0.0000 N   0  0  0
  -10.0709   -5.5103    0.0000 N   0  0  0
   -9.0744   -6.6241    0.0000 C   0  0  0
   -6.4013   -6.7647    0.0000 C   0  0  0
  1  2  1
  2  3  1
  2  4  1
  2  5  1
  5  6  2
  5  7  1
  6  8  1
  7  9  2
  7 10  1
  8 11  2
  9 12  1
 10 13  1
 12 14  2
 13 15  1
 15 16  2
 15 17  1
 16 18  1
 17 19  2
 18 20  2
 18 21  1
 21 22  1
 21 23  1
 21 24  1
 22 25  1
 24 26  1
 26 27  2
 26 28  1
 27 29  1
 28 30  1
 28 31  1
  9 11  1
 12 13  1
 19 20  1
 23 25  1
 29 30  2
M  END
> <COMPOUND_NAMES>
Example 696 (Page No: 773)

> <Reference>
WO2019148005

> <IC50_range_nM>
<100

> <smiles>
Cn1cnnc1CC1(COC1)c1cccc(c1)N1Cc2c(ccnc2C(F)(F)F)C1=O

$$$$
C28H32N6O2
  MOLSOFT 03092310482D

 36 42  0  0  0  0  0  0  0  0999 V2000
    0.0000   -0.0000    0.0000 O   0  0  0
    1.2967   -0.7427    0.0000 C   0  0  0
    1.4382   -2.2280    0.0000 N   0  0  0
    2.6642   -0.1179    0.0000 C   0  0  0
    0.3065   -3.2183    0.0000 C   0  0  0
    2.9000   -2.5345    0.0000 C   0  0  0
    3.6545   -1.2260    0.0000 C   0  0  0
    3.1122    1.3203    0.0000 C   0  0  0
    0.6130   -4.6801    0.0000 C   0  0  0
   -1.1317   -2.7467    0.0000 C   0  0  0
    5.1162   -0.8959    0.0000 C   0  0  0
    4.5740    1.6504    0.0000 C   0  0  0
   -0.5187   -5.6703    0.0000 C   0  0  0
   -2.2634   -3.7370    0.0000 C   0  0  0
    5.5642    0.5423    0.0000 N   0  0  0
    6.1065   -2.0041    0.0000 C   0  0  0
    5.0219    3.0886    0.0000 C   0  0  0
   -1.9569   -5.1988    0.0000 C   0  0  0
   -0.2122   -7.1321    0.0000 C   0  0  0
    7.5211   -2.4520    0.0000 C   0  0  0
    6.4130   -3.4658    0.0000 C   0  0  0
    6.4837    3.4187    0.0000 N   0  0  0
    1.0374   -7.9455    0.0000 C   0  0  0
   -1.0492   -8.3817    0.0000 C   0  0  0
   -1.6504   -6.6605    0.0000 C   0  0  0
    7.0849    4.8097    0.0000 C   0  0  0
    7.5918    2.4284    0.0000 C   0  0  0
    0.2004   -9.1951    0.0000 O   0  0  0
   -2.7821   -7.6508    0.0000 C   0  0  0
    8.5703    4.6683    0.0000 C   0  0  0
    8.8768    3.1947    0.0000 C   0  0  0
   -4.2675   -7.3207    0.0000 N   0  0  0
   -2.6406   -9.1361    0.0000 N   0  0  0
   -5.0337   -8.6174    0.0000 N   0  0  0
   -4.0317   -9.7373    0.0000 C   0  0  0
   -1.3439   -9.8788    0.0000 C   0  0  0
  1  2  2
  2  3  1
  2  4  1
  3  5  1
  3  6  1
  4  7  2
  4  8  1
  5  9  2
  5 10  1
  7 11  1
  8 12  2
  9 13  1
 10 14  2
 11 15  2
 11 16  1
 12 17  1
 13 18  2
 13 19  1
 16 20  1
 16 21  1
 17 22  1
 19 23  1
 19 24  1
 19 25  1
 22 26  1
 22 27  1
 23 28  1
 25 29  1
 26 30  1
 27 31  1
 29 32  2
 29 33  1
 32 34  1
 33 35  1
 33 36  1
  6  7  1
 12 15  1
 14 18  1
 20 21  1
 24 28  1
 30 31  1
 34 35  2
M  END
> <COMPOUND_NAMES>
Example 579 (Page No: 704)

> <Reference>
WO2019148005

> <IC50_range_nM>
<100

> <smiles>
Cn1cnnc1CC1(COC1)c1cccc(c1)N1Cc2c(cc(CN3CCCC3)nc2C2CC2)C1=O

$$$$
C29H34N6O2
  MOLSOFT 03092310482D

 37 43  0  0  0  0  0  0  0  0999 V2000
    0.0000   -0.0000    0.0000 O   0  0  0
   -0.4731   -1.4193    0.0000 C   0  0  0
    0.4021   -2.6258    0.0000 N   0  0  0
   -1.9161   -1.8688    0.0000 C   0  0  0
    1.8924   -2.6139    0.0000 C   0  0  0
   -0.4968   -3.8322    0.0000 C   0  0  0
   -1.9279   -3.3591    0.0000 C   0  0  0
   -3.2290   -1.1118    0.0000 C   0  0  0
    2.6258   -1.3010    0.0000 C   0  0  0
    2.6258   -3.9031    0.0000 C   0  0  0
   -3.2408   -4.0924    0.0000 C   0  0  0
   -4.5418   -1.8451    0.0000 C   0  0  0
    4.1160   -1.2892    0.0000 C   0  0  0
    4.1160   -3.8913    0.0000 C   0  0  0
   -4.5537   -3.3354    0.0000 N   0  0  0
   -3.2526   -5.5827    0.0000 C   0  0  0
   -5.8547   -1.0882    0.0000 C   0  0  3
    4.8494   -2.5784    0.0000 C   0  0  0
    4.8494    0.0237    0.0000 C   0  0  0
   -2.5193   -6.8719    0.0000 C   0  0  0
   -4.0096   -6.8719    0.0000 C   0  0  0
   -7.1676   -1.8215    0.0000 N   0  0  0
   -5.8666    0.4258    0.0000 C   0  0  0
    4.4472    1.4903    0.0000 C   0  0  0
    6.2923    0.4258    0.0000 C   0  0  0
    5.5945   -1.2656    0.0000 C   0  0  0
   -7.3332   -3.2999    0.0000 C   0  0  0
   -8.5514   -1.1946    0.0000 C   0  0  0
    5.8902    1.8924    0.0000 O   0  0  0
    7.0848   -1.2537    0.0000 C   0  0  0
   -8.8117   -3.5956    0.0000 C   0  0  0
   -9.5686   -2.2946    0.0000 C   0  0  0
    7.9601   -0.0237    0.0000 N   0  0  0
    7.9601   -2.4602    0.0000 N   0  0  0
    9.3794   -0.4731    0.0000 N   0  0  0
    9.3794   -1.9871    0.0000 C   0  0  0
    7.4869   -3.8795    0.0000 C   0  0  0
  1  2  2
  2  3  1
  2  4  1
  3  5  1
  3  6  1
  4  7  2
  4  8  1
  5  9  2
  5 10  1
  7 11  1
  8 12  2
  9 13  1
 10 14  2
 11 15  2
 11 16  1
 17 12  1
 13 18  2
 13 19  1
 16 20  1
 16 21  1
 17 23  1
 19 24  1
 19 25  1
 19 26  1
 22 27  1
 22 28  1
 24 29  1
 26 30  1
 27 31  1
 28 32  1
 30 33  2
 30 34  1
 33 35  1
 34 36  1
 34 37  1
  6  7  1
 12 15  1
 14 18  1
 20 21  1
 25 29  1
 31 32  1
 35 36  2
 17 22  1
M  END
> <COMPOUND_NAMES>
Example 584 (+/-) (Page No: 707)

> <Reference>
WO2019148005

> <IC50_range_nM>
<100

> <smiles>
CC(c1cc2C(N(Cc2c(C2CC2)n1)c1cccc(c1)C1(Cc2nncn2C)COC1)=O)N1CCCC1

$$$$
C30H36N6O2
  MOLSOFT 03092310482D

 38 44  0  0  0  0  0  0  0  0999 V2000
    0.0000   -0.0000    0.0000 O   0  0  0
   -0.4730   -1.4190    0.0000 C   0  0  0
    0.4021   -2.6252    0.0000 N   0  0  0
   -1.9157   -1.8684    0.0000 C   0  0  0
    1.8921   -2.6134    0.0000 C   0  0  0
   -0.4967   -3.8314    0.0000 C   0  0  0
   -1.9275   -3.3584    0.0000 C   0  0  0
   -3.2283   -1.1116    0.0000 C   0  0  0
    2.6252   -1.3008    0.0000 C   0  0  0
    2.6252   -3.9024    0.0000 C   0  0  0
   -3.2402   -4.0916    0.0000 C   0  0  0
   -4.5410   -1.8448    0.0000 C   0  0  0
    4.1152   -1.2890    0.0000 C   0  0  0
    4.1152   -3.8906    0.0000 C   0  0  0
   -4.5528   -3.3348    0.0000 N   0  0  0
   -3.2520   -5.5816    0.0000 C   0  0  0
   -5.8536   -1.0879    0.0000 C   0  0  3
    4.8484   -2.5779    0.0000 C   0  0  0
    4.8484    0.0237    0.0000 C   0  0  0
   -2.5070   -6.8706    0.0000 C   0  0  0
   -4.0088   -6.8706    0.0000 C   0  0  0
   -7.1662   -1.8211    0.0000 N   0  0  0
   -5.8654    0.4257    0.0000 C   0  0  0
    4.4464    1.4900    0.0000 C   0  0  0
    6.2911    0.4257    0.0000 C   0  0  0
    5.5816   -1.2653    0.0000 C   0  0  0
   -7.1780   -3.3111    0.0000 C   0  0  0
   -8.4788   -1.0643    0.0000 C   0  0  0
    5.8891    1.8921    0.0000 O   0  0  0
    7.0716   -1.2535    0.0000 C   0  0  0
   -8.4906   -4.0443    0.0000 C   0  0  0
   -9.7914   -1.7975    0.0000 C   0  0  0
    7.9467   -0.0237    0.0000 N   0  0  0
    7.9467   -2.4597    0.0000 N   0  0  0
   -9.8033   -3.2875    0.0000 C   0  0  0
    9.3657   -0.4730    0.0000 N   0  0  0
    9.3657   -1.9867    0.0000 C   0  0  0
    7.4737   -3.8787    0.0000 C   0  0  0
  1  2  2
  2  3  1
  2  4  1
  3  5  1
  3  6  1
  4  7  2
  4  8  1
  5  9  2
  5 10  1
  7 11  1
  8 12  2
  9 13  1
 10 14  2
 11 15  2
 11 16  1
 17 12  1
 13 18  2
 13 19  1
 16 20  1
 16 21  1
 17 23  1
 19 24  1
 19 25  1
 19 26  1
 22 27  1
 22 28  1
 24 29  1
 26 30  1
 27 31  1
 28 32  1
 30 33  2
 30 34  1
 31 35  1
 33 36  1
 34 37  1
 34 38  1
  6  7  1
 12 15  1
 14 18  1
 20 21  1
 25 29  1
 32 35  1
 36 37  2
 17 22  1
M  END
> <COMPOUND_NAMES>
Example 587 (+/-) (Page No: 709)

> <Reference>
WO2019148005

> <IC50_range_nM>
<100

> <smiles>
CC(c1cc2C(N(Cc2c(C2CC2)n1)c1cccc(c1)C1(Cc2nncn2C)COC1)=O)N1CCCCC1

$$$$
C30H34N6O2
  MOLSOFT 03092310482D

 38 45  0  0  0  0  0  0  0  0999 V2000
    0.0000   -0.0000    0.0000 O   0  0  0
   -0.4726   -1.4178    0.0000 C   0  0  0
    0.4017   -2.6228    0.0000 N   0  0  0
   -1.9140   -1.8667    0.0000 C   0  0  0
    1.8903   -2.6110    0.0000 C   0  0  0
   -0.4962   -3.8279    0.0000 C   0  0  0
   -1.9258   -3.3554    0.0000 C   0  0  0
   -3.2254   -1.1106    0.0000 C   0  0  0
    2.6347   -1.2996    0.0000 C   0  0  0
    2.6347   -3.8988    0.0000 C   0  0  0
   -3.2372   -4.0997    0.0000 C   0  0  0
   -4.5368   -1.8431    0.0000 C   0  0  0
    4.1233   -1.2878    0.0000 C   0  0  0
    4.1233   -3.8870    0.0000 C   0  0  0
   -4.5486   -3.3435    0.0000 N   0  0  0
   -3.2490   -5.5883    0.0000 C   0  0  0
   -5.8482   -1.0869    0.0000 C   0  0  3
    4.8558   -2.5756    0.0000 C   0  0  0
    4.8558    0.0236    0.0000 C   0  0  0
   -2.5047   -6.8761    0.0000 C   0  0  0
   -4.0052   -6.8761    0.0000 C   0  0  0
   -7.1597   -1.8195    0.0000 N   0  0  0
   -5.8601    0.4253    0.0000 C   0  0  0
    4.4541    1.4886    0.0000 C   0  0  0
    6.2972    0.4253    0.0000 C   0  0  0
    5.5883   -1.2642    0.0000 C   0  0  0
   -7.5614   -3.2608    0.0000 C   0  0  0
   -8.6247   -1.4178    0.0000 C   0  0  0
    5.8955    1.8903    0.0000 O   0  0  0
    7.0770   -1.2524    0.0000 C   0  0  0
   -9.0264   -2.8591    0.0000 C   0  0  0
    7.9512   -0.0236    0.0000 N   0  0  0
    7.9512   -2.4574    0.0000 N   0  0  0
   -9.7825   -4.1469    0.0000 C   0  0  0
  -10.5387   -2.8473    0.0000 C   0  0  0
    9.3690   -0.4726    0.0000 N   0  0  0
    9.3690   -1.9849    0.0000 C   0  0  0
    7.4787   -3.8752    0.0000 C   0  0  0
  1  2  2
  2  3  1
  2  4  1
  3  5  1
  3  6  1
  4  7  2
  4  8  1
  5  9  2
  5 10  1
  7 11  1
  8 12  2
  9 13  1
 10 14  2
 11 15  2
 11 16  1
 17 12  1
 13 18  2
 13 19  1
 16 20  1
 16 21  1
 17 23  1
 19 24  1
 19 25  1
 19 26  1
 22 27  1
 22 28  1
 24 29  1
 26 30  1
 27 31  1
 30 32  2
 30 33  1
 31 34  1
 31 35  1
 32 36  1
 33 37  1
 33 38  1
  6  7  1
 12 15  1
 14 18  1
 20 21  1
 25 29  1
 28 31  1
 34 35  1
 36 37  2
 17 22  1
M  END
> <COMPOUND_NAMES>
Example 586 (+/-) (Page No: 708)

> <Reference>
WO2019148005

> <IC50_range_nM>
<100

> <smiles>
CC(c1cc2C(N(Cc2c(C2CC2)n1)c1cccc(c1)C1(Cc2nncn2C)COC1)=O)N1CC2(CC2)C1

$$$$
C31H36N6O2
  MOLSOFT 03092310482D

 39 46  0  0  0  0  0  0  0  0999 V2000
    0.0000   -0.0000    0.0000 O   0  0  0
   -0.4727   -1.4182    0.0000 C   0  0  0
    0.4018   -2.6237    0.0000 N   0  0  0
   -1.9146   -1.8673    0.0000 C   0  0  0
    1.8909   -2.6119    0.0000 C   0  0  0
   -0.4964   -3.8291    0.0000 C   0  0  0
   -1.9264   -3.3564    0.0000 C   0  0  0
   -3.2264   -1.1109    0.0000 C   0  0  0
    2.6237   -1.3000    0.0000 C   0  0  0
    2.6237   -3.9001    0.0000 C   0  0  0
   -3.2382   -4.0892    0.0000 C   0  0  0
   -4.5382   -1.8437    0.0000 C   0  0  0
    4.1128   -1.2882    0.0000 C   0  0  0
    4.1128   -3.8882    0.0000 C   0  0  0
   -4.5501   -3.3328    0.0000 N   0  0  0
   -3.2500   -5.5783    0.0000 C   0  0  0
   -5.8501   -1.0873    0.0000 C   0  0  3
    4.8573   -2.5764    0.0000 C   0  0  0
    4.8573    0.0236    0.0000 C   0  0  0
   -2.5173   -6.8665    0.0000 C   0  0  0
   -4.0064   -6.8665    0.0000 C   0  0  0
   -7.1619   -1.8200    0.0000 N   0  0  0
   -5.8619    0.4255    0.0000 C   0  0  0
    4.4555    1.4891    0.0000 C   0  0  0
    6.2992    0.4255    0.0000 C   0  0  0
    5.5901   -1.2646    0.0000 C   0  0  0
   -8.5447   -1.1937    0.0000 C   0  0  0
   -7.3274   -3.2973    0.0000 C   0  0  0
    5.8974    1.8909    0.0000 O   0  0  0
    7.0792   -1.2527    0.0000 C   0  0  0
   -9.5610   -2.2928    0.0000 C   0  0  0
   -8.8047   -3.5928    0.0000 C   0  0  0
    7.9538   -0.0236    0.0000 N   0  0  0
    7.9538   -2.4582    0.0000 N   0  0  0
  -10.9438   -2.8955    0.0000 C   0  0  0
  -10.7902   -1.3946    0.0000 C   0  0  0
    9.3720   -0.4727    0.0000 N   0  0  0
    9.3720   -1.9855    0.0000 C   0  0  0
    7.4810   -3.8764    0.0000 C   0  0  0
  1  2  2
  2  3  1
  2  4  1
  3  5  1
  3  6  1
  4  7  2
  4  8  1
  5  9  2
  5 10  1
  7 11  1
  8 12  2
  9 13  1
 10 14  2
 11 15  2
 11 16  1
 17 12  1
 13 18  2
 13 19  1
 16 20  1
 16 21  1
 17 23  1
 19 24  1
 19 25  1
 19 26  1
 22 27  1
 22 28  1
 24 29  1
 26 30  1
 27 31  1
 28 32  1
 30 33  2
 30 34  1
 31 35  1
 31 36  1
 33 37  1
 34 38  1
 34 39  1
  6  7  1
 12 15  1
 14 18  1
 20 21  1
 25 29  1
 31 32  1
 35 36  1
 37 38  2
 17 22  1
M  END
> <COMPOUND_NAMES>
Example 585 (+/-) (Page No: 708)

> <Reference>
WO2019148005

> <IC50_range_nM>
<100

> <smiles>
CC(c1cc2C(N(Cc2c(C2CC2)n1)c1cccc(c1)C1(Cc2nncn2C)COC1)=O)N1CCC2(CC2)C1

$$$$
C28H31FN6O2
  MOLSOFT 03092310482D

 37 43  0  0  1  0  0  0  0  0999 V2000
    0.0000   -0.0000    0.0000 F   0  0  0
   -1.3876    0.6232    0.0000 C   0  0  2
   -2.6929   -0.1176    0.0000 C   0  0  0
   -1.7169    2.1049    0.0000 C   0  0  0
   -3.8218    0.8937    0.0000 N   0  0  0
   -3.2220    2.2695    0.0000 C   0  0  0
   -5.3034    0.5880    0.0000 C   0  0  0
   -5.7738   -0.8231    0.0000 C   0  0  0
   -4.7860   -1.9285    0.0000 N   0  0  0
   -7.2555   -1.1289    0.0000 C   0  0  0
   -5.2564   -3.3396    0.0000 C   0  0  0
   -7.7258   -2.5400    0.0000 C   0  0  0
   -6.7381   -3.6454    0.0000 C   0  0  0
   -4.2686   -4.4450    0.0000 C   0  0  0
   -9.1134   -3.1397    0.0000 C   0  0  0
   -7.5024   -4.9389    0.0000 C   0  0  0
   -2.8575   -4.8918    0.0000 C   0  0  0
   -3.9629   -5.9031    0.0000 C   0  0  0
  -10.4305   -2.3754    0.0000 O   0  0  0
   -8.9723   -4.6214    0.0000 N   0  0  0
  -10.1012   -5.6092    0.0000 C   0  0  0
   -9.7955   -7.0673    0.0000 C   0  0  0
  -11.5358   -5.1388    0.0000 C   0  0  0
  -10.9243   -8.0551    0.0000 C   0  0  0
  -12.6647   -6.1266    0.0000 C   0  0  0
  -12.3590   -7.5847    0.0000 C   0  0  0
  -10.6186   -9.5132    0.0000 C   0  0  0
   -9.3721  -10.3246    0.0000 C   0  0  0
  -11.4535  -10.7597    0.0000 C   0  0  0
  -12.0532   -9.0429    0.0000 C   0  0  0
  -10.2070  -11.5711    0.0000 O   0  0  0
  -13.1821  -10.0306    0.0000 C   0  0  0
  -14.6638   -9.7014    0.0000 N   0  0  0
  -13.0410  -11.5123    0.0000 N   0  0  0
  -15.4281  -10.9949    0.0000 N   0  0  0
  -14.4286  -12.1120    0.0000 C   0  0  0
  -11.7475  -12.2531    0.0000 C   0  0  0
  2  1  1  6  0
  2  3  1
  2  4  1
  3  5  1
  4  6  1
  5  7  1
  7  8  1
  8  9  2
  8 10  1
  9 11  1
 10 12  2
 11 13  2
 11 14  1
 12 15  1
 13 16  1
 14 17  1
 14 18  1
 15 19  2
 15 20  1
 20 21  1
 21 22  2
 21 23  1
 22 24  1
 23 25  2
 24 26  2
 24 27  1
 27 28  1
 27 29  1
 27 30  1
 28 31  1
 30 32  1
 32 33  2
 32 34  1
 33 35  1
 34 36  1
 34 37  1
  5  6  1
 12 13  1
 16 20  1
 17 18  1
 25 26  1
 29 31  1
 35 36  2
M  END
> <COMPOUND_NAMES>
Example 578 (S) (Page No: 703)

> <Reference>
WO2019148005

> <IC50_range_nM>
<100

> <smiles>
Cn1cnnc1CC1(COC1)c1cccc(c1)N1Cc2c(cc(CN3CC[C@@H](C3)F)nc2C2CC2)C1=O

$$$$
C27H28F2N6O2
  MOLSOFT 03092310482D

 37 43  0  0  0  0  0  0  0  0999 V2000
    0.0000   -0.0000    0.0000 F   0  0  0
   -1.4833   -0.3061    0.0000 C   0  0  0
   -2.4958    0.8241    0.0000 F   0  0  0
   -1.9542   -1.7188    0.0000 C   0  0  0
   -3.3081   -2.3898    0.0000 C   0  0  0
   -1.2832   -3.0491    0.0000 C   0  0  0
   -2.6370   -3.7201    0.0000 N   0  0  0
   -3.1079   -5.1328    0.0000 C   0  0  0
   -2.1190   -6.2394    0.0000 N   0  0  0
   -4.5912   -5.4389    0.0000 C   0  0  0
   -2.5899   -7.6521    0.0000 C   0  0  0
   -5.0621   -6.8516    0.0000 C   0  0  0
   -4.0733   -7.9582    0.0000 C   0  0  0
   -1.6011   -8.7587    0.0000 C   0  0  0
   -6.4513   -7.4519    0.0000 C   0  0  0
   -4.8385   -9.2531    0.0000 C   0  0  0
   -0.1884   -9.2060    0.0000 C   0  0  0
   -1.2950  -10.2185    0.0000 C   0  0  0
   -7.7698   -6.6867    0.0000 O   0  0  0
   -6.3100   -8.9353    0.0000 N   0  0  0
   -7.4402   -9.9242    0.0000 C   0  0  0
   -7.1341  -11.3839    0.0000 C   0  0  0
   -8.8764   -9.4533    0.0000 C   0  0  0
   -8.2642  -12.3728    0.0000 C   0  0  0
  -10.0066  -10.4421    0.0000 C   0  0  0
   -9.7005  -11.9019    0.0000 C   0  0  0
   -7.9582  -13.8326    0.0000 C   0  0  0
   -6.7103  -14.6449    0.0000 C   0  0  0
   -8.7940  -15.0805    0.0000 C   0  0  0
   -9.3944  -13.3617    0.0000 C   0  0  0
   -7.5461  -15.8928    0.0000 O   0  0  0
  -10.5246  -14.3506    0.0000 C   0  0  0
  -12.0079  -14.0210    0.0000 N   0  0  0
  -10.3833  -15.8339    0.0000 N   0  0  0
  -12.7731  -15.3159    0.0000 N   0  0  0
  -11.7724  -16.4343    0.0000 C   0  0  0
   -9.0883  -16.5756    0.0000 C   0  0  0
  1  2  1
  2  3  1
  2  4  1
  4  5  1
  4  6  1
  5  7  1
  7  8  1
  8  9  2
  8 10  1
  9 11  1
 10 12  2
 11 13  2
 11 14  1
 12 15  1
 13 16  1
 14 17  1
 14 18  1
 15 19  2
 15 20  1
 20 21  1
 21 22  2
 21 23  1
 22 24  1
 23 25  2
 24 26  2
 24 27  1
 27 28  1
 27 29  1
 27 30  1
 28 31  1
 30 32  1
 32 33  2
 32 34  1
 33 35  1
 34 36  1
 34 37  1
  6  7  1
 12 13  1
 16 20  1
 17 18  1
 25 26  1
 29 31  1
 35 36  2
M  END
> <COMPOUND_NAMES>
Example 609 (Page No: 720)

> <Reference>
WO2019148005

> <IC50_range_nM>
<100

> <smiles>
Cn1cnnc1CC1(COC1)c1cccc(c1)N1Cc2c(cc(nc2C2CC2)N2CC(C2)C(F)F)C1=O

$$$$
C21H19F3N4O
  MOLSOFT 03092310482D

 29 32  0  0  1  0  0  0  0  0999 V2000
    0.0000   -0.0000    0.0000 F   0  0  0
    1.1043    1.0103    0.0000 C   0  0  0
    2.0911   -0.0940    0.0000 F   0  0  0
    2.2086    2.0206    0.0000 F   0  0  0
    0.0940    2.1381    0.0000 C   0  0  0
   -1.3862    1.8327    0.0000 C   0  0  0
    0.5404    3.5713    0.0000 C   0  0  0
   -2.3965    2.9604    0.0000 C   0  0  0
   -2.1498    0.5404    0.0000 C   0  0  0
   -0.4699    4.6991    0.0000 C   0  0  0
   -3.7828    2.3613    0.0000 C   0  0  0
   -1.9501    4.3937    0.0000 C   0  0  0
   -3.6301    0.8693    0.0000 N   0  0  0
   -5.0985    3.1249    0.0000 O   0  0  0
   -4.7579   -0.1175    0.0000 C   0  0  0
   -4.4524   -1.5742    0.0000 C   0  0  0
   -6.1911    0.3524    0.0000 C   0  0  0
   -5.5802   -2.5610    0.0000 C   0  0  0
   -7.3189   -0.6344    0.0000 C   0  0  0
   -7.0134   -2.0911    0.0000 C   0  0  0
   -5.2748   -4.0177    0.0000 C   0  0  1
   -3.8650   -4.4642    0.0000 C   0  0  0
   -6.4025   -5.0046    0.0000 C   0  0  0
   -3.5596   -5.9209    0.0000 C   0  0  0
   -2.1968   -6.5200    0.0000 N   0  0  0
   -4.5699   -7.0252    0.0000 N   0  0  0
   -2.3613   -8.0002    0.0000 N   0  0  0
   -3.8298   -8.3057    0.0000 C   0  0  0
   -6.0736   -6.8607    0.0000 C   0  0  0
  1  2  1
  2  3  1
  2  4  1
  2  5  1
  5  6  2
  5  7  1
  6  8  1
  6  9  1
  7 10  2
  8 11  1
  8 12  2
  9 13  1
 11 14  2
 13 15  1
 15 16  2
 15 17  1
 16 18  1
 17 19  2
 18 20  2
 21 18  1
 21 22  1
 21 23  1  1  0
 22 24  1
 24 25  2
 24 26  1
 25 27  1
 26 28  1
 26 29  1
 10 12  1
 11 13  1
 19 20  1
 27 28  2
M  END
> <COMPOUND_NAMES>
Example 255a (R) (Page No: 470)

> <Reference>
WO2019148005

> <IC50_range_nM>
<100

> <smiles>
C[C@H](Cc1nncn1C)c1cccc(c1)N1Cc2c(cccc2C(F)(F)F)C1=O

$$$$
C21H19F3N4O
  MOLSOFT 03092310482D

 29 32  0  0  1  0  0  0  0  0999 V2000
    0.0000   -0.0000    0.0000 F   0  0  0
    1.1043    1.0103    0.0000 C   0  0  0
    2.0911   -0.0940    0.0000 F   0  0  0
    2.2086    2.0206    0.0000 F   0  0  0
    0.0940    2.1381    0.0000 C   0  0  0
   -1.3862    1.8327    0.0000 C   0  0  0
    0.5404    3.5713    0.0000 C   0  0  0
   -2.3965    2.9604    0.0000 C   0  0  0
   -2.1498    0.5404    0.0000 C   0  0  0
   -0.4699    4.6991    0.0000 C   0  0  0
   -3.7828    2.3613    0.0000 C   0  0  0
   -1.9501    4.3937    0.0000 C   0  0  0
   -3.6301    0.8693    0.0000 N   0  0  0
   -5.0985    3.1249    0.0000 O   0  0  0
   -4.7579   -0.1175    0.0000 C   0  0  0
   -4.4524   -1.5742    0.0000 C   0  0  0
   -6.1911    0.3524    0.0000 C   0  0  0
   -5.5802   -2.5610    0.0000 C   0  0  0
   -7.3189   -0.6344    0.0000 C   0  0  0
   -7.0134   -2.0911    0.0000 C   0  0  0
   -5.2748   -4.0177    0.0000 C   0  0  2
   -3.8650   -4.4642    0.0000 C   0  0  0
   -6.4025   -5.0046    0.0000 C   0  0  0
   -3.5596   -5.9209    0.0000 C   0  0  0
   -2.1968   -6.5200    0.0000 N   0  0  0
   -4.5699   -7.0252    0.0000 N   0  0  0
   -2.3613   -8.0002    0.0000 N   0  0  0
   -3.8298   -8.3057    0.0000 C   0  0  0
   -6.0736   -6.8607    0.0000 C   0  0  0
  1  2  1
  2  3  1
  2  4  1
  2  5  1
  5  6  2
  5  7  1
  6  8  1
  6  9  1
  7 10  2
  8 11  1
  8 12  2
  9 13  1
 11 14  2
 13 15  1
 15 16  2
 15 17  1
 16 18  1
 17 19  2
 18 20  2
 21 18  1
 21 22  1
 21 23  1  6  0
 22 24  1
 24 25  2
 24 26  1
 25 27  1
 26 28  1
 26 29  1
 10 12  1
 11 13  1
 19 20  1
 27 28  2
M  END
> <COMPOUND_NAMES>
Example 255b (S) (Page No: 75, Table No: 1)

> <Reference>
WO2019148005

> <IC50_range_nM>
1001-3000

> <smiles>
C[C@@H](Cc1nncn1C)c1cccc(c1)N1Cc2c(cccc2C(F)(F)F)C1=O

$$$$
C22H19F3N4O
  MOLSOFT 03092310482D

 30 34  0  0  0  0  0  0  0  0999 V2000
    0.0000   -0.0000    0.0000 F   0  0  0
    1.1019    1.0081    0.0000 C   0  0  0
    2.0982   -0.0938    0.0000 F   0  0  0
    2.2037    2.0279    0.0000 F   0  0  0
    0.0821    2.1334    0.0000 C   0  0  0
   -1.3949    1.8286    0.0000 C   0  0  0
    0.5275    3.5635    0.0000 C   0  0  0
   -2.4147    2.9540    0.0000 C   0  0  0
   -2.1569    0.5392    0.0000 C   0  0  0
   -0.4923    4.6888    0.0000 C   0  0  0
   -3.7979    2.3561    0.0000 C   0  0  0
   -1.9693    4.3840    0.0000 C   0  0  0
   -3.6338    0.8674    0.0000 N   0  0  0
   -5.1108    3.1181    0.0000 O   0  0  0
   -4.7592   -0.1289    0.0000 C   0  0  0
   -4.4544   -1.5825    0.0000 C   0  0  0
   -6.1892    0.3399    0.0000 C   0  0  0
   -5.5797   -2.5671    0.0000 C   0  0  0
   -7.3146   -0.6564    0.0000 C   0  0  0
   -7.0215   -2.0982    0.0000 C   0  0  0
   -5.2749   -4.0207    0.0000 C   0  0  0
   -4.2785   -5.1225    0.0000 C   0  0  0
   -5.7438   -5.4273    0.0000 C   0  0  0
   -6.7050   -3.5518    0.0000 C   0  0  0
   -7.8303   -4.5482    0.0000 C   0  0  0
   -9.3073   -4.2199    0.0000 N   0  0  0
   -7.6897   -6.0251    0.0000 N   0  0  0
  -10.0692   -5.5094    0.0000 N   0  0  0
   -9.0729   -6.6230    0.0000 C   0  0  0
   -6.4002   -6.7636    0.0000 C   0  0  0
  1  2  1
  2  3  1
  2  4  1
  2  5  1
  5  6  2
  5  7  1
  6  8  1
  6  9  1
  7 10  2
  8 11  1
  8 12  2
  9 13  1
 11 14  2
 13 15  1
 15 16  2
 15 17  1
 16 18  1
 17 19  2
 18 20  2
 18 21  1
 21 22  1
 21 23  1
 21 24  1
 24 25  1
 25 26  2
 25 27  1
 26 28  1
 27 29  1
 27 30  1
 10 12  1
 11 13  1
 19 20  1
 22 23  1
 28 29  2
M  END
> <COMPOUND_NAMES>
Example 299 (Page No: 505)

> <Reference>
WO2019148005

> <IC50_range_nM>
<100

> <smiles>
Cn1cnnc1CC1(CC1)c1cccc(c1)N1Cc2c(cccc2C(F)(F)F)C1=O

$$$$
C22H21F3N4O
  MOLSOFT 03092310482D

 30 33  0  0  0  0  0  0  0  0999 V2000
    0.0000   -0.0000    0.0000 F   0  0  0
    1.0987    1.0160    0.0000 C   0  0  0
    2.0910   -0.0827    0.0000 F   0  0  0
    2.1974    2.0320    0.0000 F   0  0  0
    0.0827    2.1383    0.0000 C   0  0  0
   -1.3940    1.8430    0.0000 C   0  0  0
    0.5316    3.5796    0.0000 C   0  0  0
   -2.4100    2.9653    0.0000 C   0  0  0
   -2.1501    0.5552    0.0000 C   0  0  0
   -0.4844    4.7019    0.0000 C   0  0  0
   -3.7922    2.3628    0.0000 C   0  0  0
   -1.9611    4.4066    0.0000 C   0  0  0
   -3.6268    0.8742    0.0000 N   0  0  0
   -5.1036    3.1307    0.0000 O   0  0  0
   -4.7492   -0.1181    0.0000 C   0  0  0
   -4.4538   -1.5712    0.0000 C   0  0  0
   -6.1904    0.3544    0.0000 C   0  0  0
   -5.5761   -2.5636    0.0000 C   0  0  0
   -7.3127   -0.6379    0.0000 C   0  0  0
   -7.0174   -2.0910    0.0000 C   0  0  0
   -5.2808   -4.0167    0.0000 C   0  0  0
   -4.9854   -5.4698    0.0000 C   0  0  0
   -3.8277   -3.6977    0.0000 C   0  0  0
   -6.7575   -4.3120    0.0000 C   0  0  0
   -3.5678   -5.9187    0.0000 C   0  0  0
   -3.1188   -7.3364    0.0000 N   0  0  0
   -2.3628   -5.0209    0.0000 N   0  0  0
   -1.6303   -7.3246    0.0000 N   0  0  0
   -1.1578   -5.8951    0.0000 C   0  0  0
   -2.3746   -3.5087    0.0000 C   0  0  0
  1  2  1
  2  3  1
  2  4  1
  2  5  1
  5  6  2
  5  7  1
  6  8  1
  6  9  1
  7 10  2
  8 11  1
  8 12  2
  9 13  1
 11 14  2
 13 15  1
 15 16  2
 15 17  1
 16 18  1
 17 19  2
 18 20  2
 18 21  1
 21 22  1
 21 23  1
 21 24  1
 22 25  1
 25 26  2
 25 27  1
 26 28  1
 27 29  1
 27 30  1
 10 12  1
 11 13  1
 19 20  1
 28 29  2
M  END
> <COMPOUND_NAMES>
Example 300 (Page No: 507)

> <Reference>
WO2019148005

> <IC50_range_nM>
<100

> <smiles>
CC(C)(Cc1nncn1C)c1cccc(c1)N1Cc2c(cccc2C(F)(F)F)C1=O

$$$$
C22H19F3N4O
  MOLSOFT 03092310482D

 30 34  0  0  1  0  0  0  0  0999 V2000
    0.0000   -0.0000    0.0000 F   0  0  0
    0.3058    1.4819    0.0000 C   0  0  0
    1.7641    1.1761    0.0000 F   0  0  0
    0.6116    2.9637    0.0000 F   0  0  0
   -1.1761    1.8112    0.0000 C   0  0  0
   -2.1875    0.7057    0.0000 C   0  0  0
   -1.6583    3.2460    0.0000 C   0  0  0
   -3.6694    1.0350    0.0000 C   0  0  0
   -2.0464   -0.7762    0.0000 C   0  0  0
   -3.1401    3.5753    0.0000 C   0  0  0
   -4.4338   -0.2587    0.0000 C   0  0  0
   -4.1398    2.4698    0.0000 C   0  0  0
   -3.4342   -1.3760    0.0000 N   0  0  0
   -5.9392   -0.3999    0.0000 O   0  0  0
   -3.7635   -2.8344    0.0000 C   0  0  0
   -2.6580   -3.8223    0.0000 C   0  0  0
   -5.1983   -3.2813    0.0000 C   0  0  0
   -2.9873   -5.2806    0.0000 C   0  0  0
   -5.5276   -4.7396    0.0000 C   0  0  0
   -4.4221   -5.7275    0.0000 C   0  0  0
   -1.8817   -6.2685    0.0000 C   0  0  2
   -1.4348   -7.6798    0.0000 C   0  0  1
   -0.4234   -6.5743    0.0000 C   0  0  1
   -1.7641   -9.1382    0.0000 C   0  0  0
    0.9879   -6.1039    0.0000 C   0  0  0
   -0.7762  -10.2437    0.0000 N   0  0  0
   -3.1519   -9.7380    0.0000 N   0  0  0
   -1.5407  -11.5374    0.0000 N   0  0  0
   -3.0108  -11.2199    0.0000 C   0  0  0
   -4.4691   -8.9735    0.0000 C   0  0  0
  1  2  1
  2  3  1
  2  4  1
  2  5  1
  5  6  2
  5  7  1
  6  8  1
  6  9  1
  7 10  2
  8 11  1
  8 12  2
  9 13  1
 11 14  2
 13 15  1
 15 16  2
 15 17  1
 16 18  1
 17 19  2
 18 20  2
 21 18  1  1  0
 21 22  1
 21 23  1
 22 24  1  1  0
 23 25  1  6  0
 24 26  2
 24 27  1
 26 28  1
 27 29  1
 27 30  1
 10 12  1
 11 13  1
 19 20  1
 22 23  1
 28 29  2
M  END
> <COMPOUND_NAMES>
Example 375 (Stereo) (Page No: 553)

> <Reference>
WO2019148005

> <IC50_range_nM>
<100

> <smiles>
C[C@H]1[C@H](c2cccc(c2)N2Cc3c(cccc3C(F)(F)F)C2=O)[C@@H]1c1nncn1C

$$$$
C21H17F3N4O
  MOLSOFT 03092310482D

 29 33  0  0  1  0  0  0  0  0999 V2000
    0.0000   -0.0000    0.0000 F   0  0  0
    1.0989    1.0162    0.0000 C   0  0  0
    2.0914   -0.0827    0.0000 F   0  0  0
    2.1977    2.0323    0.0000 F   0  0  0
    0.0827    2.1387    0.0000 C   0  0  0
   -1.3943    1.8433    0.0000 C   0  0  0
    0.5317    3.5802    0.0000 C   0  0  0
   -2.4104    2.9658    0.0000 C   0  0  0
   -2.1505    0.5553    0.0000 C   0  0  0
   -0.4844    4.7027    0.0000 C   0  0  0
   -3.7929    2.3632    0.0000 C   0  0  0
   -1.9614    4.4073    0.0000 C   0  0  0
   -3.6274    0.8744    0.0000 N   0  0  0
   -5.1044    3.1194    0.0000 O   0  0  0
   -4.7499   -0.1182    0.0000 C   0  0  0
   -4.4546   -1.5715    0.0000 C   0  0  0
   -6.1915    0.3545    0.0000 C   0  0  0
   -5.5771   -2.5640    0.0000 C   0  0  0
   -7.3140   -0.6381    0.0000 C   0  0  0
   -7.0186   -2.0914    0.0000 C   0  0  0
   -5.2817   -4.0174    0.0000 C   0  0  2
   -4.2891   -5.1162    0.0000 C   0  0  1
   -5.7543   -5.4353    0.0000 C   0  0  0
   -2.8712   -5.5652    0.0000 C   0  0  0
   -2.4222   -6.9831    0.0000 N   0  0  0
   -1.6660   -4.6672    0.0000 N   0  0  0
   -0.9334   -6.9713    0.0000 N   0  0  0
   -0.4608   -5.5416    0.0000 C   0  0  0
   -1.6778   -3.1548    0.0000 C   0  0  0
  1  2  1
  2  3  1
  2  4  1
  2  5  1
  5  6  2
  5  7  1
  6  8  1
  6  9  1
  7 10  2
  8 11  1
  8 12  2
  9 13  1
 11 14  2
 13 15  1
 15 16  2
 15 17  1
 16 18  1
 17 19  2
 18 20  2
 21 18  1  6  0
 21 22  1
 21 23  1
 22 24  1  6  0
 24 25  2
 24 26  1
 25 27  1
 26 28  1
 26 29  1
 10 12  1
 11 13  1
 19 20  1
 22 23  1
 27 28  2
M  END
> <COMPOUND_NAMES>
Example 282 (Stereo) (Page No: 491)

> <Reference>
WO2019148005

> <IC50_range_nM>
301-1000

> <smiles>
Cn1cnnc1[C@@H]1C[C@@H]1c1cccc(c1)N1Cc2c(cccc2C(F)(F)F)C1=O

$$$$
C22H19F3N4O
  MOLSOFT 03092310482D

 30 34  0  0  1  0  0  0  0  0999 V2000
    0.0000   -0.0000    0.0000 F   0  0  0
    1.1038    1.0099    0.0000 C   0  0  0
    2.0903   -0.0939    0.0000 F   0  0  0
    2.2077    2.0198    0.0000 F   0  0  0
    0.0939    2.1372    0.0000 C   0  0  0
   -1.3857    1.8319    0.0000 C   0  0  0
    0.5402    3.5699    0.0000 C   0  0  0
   -2.3956    2.9592    0.0000 C   0  0  0
   -2.1490    0.5402    0.0000 C   0  0  0
   -0.4697    4.6972    0.0000 C   0  0  0
   -3.7812    2.3603    0.0000 C   0  0  0
   -1.9493    4.3919    0.0000 C   0  0  0
   -3.6286    0.8690    0.0000 N   0  0  0
   -5.0965    3.1236    0.0000 O   0  0  0
   -4.7559   -0.1174    0.0000 C   0  0  0
   -4.4506   -1.5736    0.0000 C   0  0  0
   -6.1886    0.3523    0.0000 C   0  0  0
   -5.5779   -2.5600    0.0000 C   0  0  0
   -7.3159   -0.6341    0.0000 C   0  0  0
   -7.0106   -2.0903    0.0000 C   0  0  0
   -5.2726   -4.0161    0.0000 C   0  0  2
   -4.0278   -4.8264    0.0000 C   0  0  2
   -6.1064   -5.2609    0.0000 C   0  0  0
   -2.5717   -4.4976    0.0000 C   0  0  0
   -4.8616   -6.0711    0.0000 C   0  0  0
   -1.4679   -5.4840    0.0000 N   0  0  0
   -1.9728   -3.1119    0.0000 N   0  0  0
   -0.1879   -4.7207    0.0000 N   0  0  0
   -0.4932   -3.2528    0.0000 C   0  0  0
   -2.7361   -1.7967    0.0000 C   0  0  0
  1  2  1
  2  3  1
  2  4  1
  2  5  1
  5  6  2
  5  7  1
  6  8  1
  6  9  1
  7 10  2
  8 11  1
  8 12  2
  9 13  1
 11 14  2
 13 15  1
 15 16  2
 15 17  1
 16 18  1
 17 19  2
 18 20  2
 21 18  1  6  0
 21 22  1
 21 23  1
 22 24  1  6  0
 22 25  1
 24 26  2
 24 27  1
 26 28  1
 27 29  1
 27 30  1
 10 12  1
 11 13  1
 19 20  1
 23 25  1
 28 29  2
M  END
> <COMPOUND_NAMES>
Example 283b (Stereo) (Page No: 494)

> <Reference>
WO2019148005

> <IC50_range_nM>
301-1000

> <smiles>
Cn1cnnc1[C@@H]1CC[C@@H]1c1cccc(c1)N1Cc2c(cccc2C(F)(F)F)C1=O

$$$$
C22H19F3N4O
  MOLSOFT 03092310482D

 30 34  0  0  0  0  0  0  0  0999 V2000
    0.0000   -0.0000    0.0000 F   0  0  0
    1.1038    1.0099    0.0000 C   0  0  0
    2.0903   -0.0939    0.0000 F   0  0  0
    2.2077    2.0198    0.0000 F   0  0  0
    0.0939    2.1372    0.0000 C   0  0  0
   -1.3857    1.8319    0.0000 C   0  0  0
    0.5402    3.5699    0.0000 C   0  0  0
   -2.3956    2.9592    0.0000 C   0  0  0
   -2.1490    0.5402    0.0000 C   0  0  0
   -0.4697    4.6972    0.0000 C   0  0  0
   -3.7812    2.3603    0.0000 C   0  0  0
   -1.9493    4.3919    0.0000 C   0  0  0
   -3.6286    0.8690    0.0000 N   0  0  0
   -5.0965    3.1236    0.0000 O   0  0  0
   -4.7559   -0.1174    0.0000 C   0  0  0
   -4.4506   -1.5736    0.0000 C   0  0  0
   -6.1886    0.3523    0.0000 C   0  0  0
   -5.5779   -2.5600    0.0000 C   0  0  0
   -7.3159   -0.6341    0.0000 C   0  0  0
   -7.0106   -2.0903    0.0000 C   0  0  0
   -5.2726   -4.0161    0.0000 C   0  0  3
   -4.0278   -4.8264    0.0000 C   0  0  3
   -6.1064   -5.2609    0.0000 C   0  0  0
   -2.5717   -4.4976    0.0000 C   0  0  0
   -4.8616   -6.0711    0.0000 C   0  0  0
   -1.4679   -5.4840    0.0000 N   0  0  0
   -1.9728   -3.1119    0.0000 N   0  0  0
   -0.1879   -4.7207    0.0000 N   0  0  0
   -0.4932   -3.2528    0.0000 C   0  0  0
   -2.7361   -1.7967    0.0000 C   0  0  0
  1  2  1
  2  3  1
  2  4  1
  2  5  1
  5  6  2
  5  7  1
  6  8  1
  6  9  1
  7 10  2
  8 11  1
  8 12  2
  9 13  1
 11 14  2
 13 15  1
 15 16  2
 15 17  1
 16 18  1
 17 19  2
 18 20  2
 21 18  1
 21 22  1
 21 23  1
 22 24  1
 22 25  1
 24 26  2
 24 27  1
 26 28  1
 27 29  1
 27 30  1
 10 12  1
 11 13  1
 19 20  1
 23 25  1
 28 29  2
M  END
> <COMPOUND_NAMES>
Example 283 (cis) (+/-) (Page No: 491)

> <Reference>
WO2019148005

> <IC50_range_nM>
301-1000

> <smiles>
Cn1cnnc1C1CCC1c1cccc(c1)N1Cc2c(cccc2C(F)(F)F)C1=O

$$$$
C24H23F3N4O
  MOLSOFT 03092310482D

 32 36  0  0  1  0  0  0  0  0999 V2000
    0.0000   -0.0000    0.0000 F   0  0  0
    1.1038    1.0099    0.0000 C   0  0  0
    2.0902   -0.0939    0.0000 F   0  0  0
    2.2077    2.0198    0.0000 F   0  0  0
    0.0939    2.1372    0.0000 C   0  0  0
   -1.3857    1.8319    0.0000 C   0  0  0
    0.5402    3.5698    0.0000 C   0  0  0
   -2.3956    2.9592    0.0000 C   0  0  0
   -2.1489    0.5402    0.0000 C   0  0  0
   -0.4697    4.6972    0.0000 C   0  0  0
   -3.7812    2.3603    0.0000 C   0  0  0
   -1.9493    4.3918    0.0000 C   0  0  0
   -3.6286    0.8690    0.0000 N   0  0  0
   -0.0235    6.1298    0.0000 C   0  0  0
   -5.0964    3.1236    0.0000 O   0  0  0
   -4.7559   -0.1174    0.0000 C   0  0  0
   -0.3523    7.6094    0.0000 C   0  0  0
    1.0803    7.1397    0.0000 C   0  0  0
   -4.4506   -1.5735    0.0000 C   0  0  0
   -6.1885    0.3523    0.0000 C   0  0  0
   -5.5779   -2.5600    0.0000 C   0  0  0
   -7.3158   -0.6341    0.0000 C   0  0  0
   -7.0105   -2.0902    0.0000 C   0  0  0
   -5.2726   -4.0161    0.0000 C   0  0  1
   -3.8634   -4.4623    0.0000 C   0  0  0
   -6.3999   -5.0025    0.0000 C   0  0  0
   -3.5581   -5.9184    0.0000 C   0  0  0
   -2.1959   -6.5173    0.0000 N   0  0  0
   -4.5680   -7.0223    0.0000 N   0  0  0
   -2.3603   -7.9969    0.0000 N   0  0  0
   -3.8282   -8.3022    0.0000 C   0  0  0
   -6.0711   -6.8578    0.0000 C   0  0  0
  1  2  1
  2  3  1
  2  4  1
  2  5  1
  5  6  2
  5  7  1
  6  8  1
  6  9  1
  7 10  2
  8 11  1
  8 12  2
  9 13  1
 10 14  1
 11 15  2
 13 16  1
 14 17  1
 14 18  1
 16 19  2
 16 20  1
 19 21  1
 20 22  2
 21 23  2
 24 21  1
 24 25  1
 24 26  1  1  0
 25 27  1
 27 28  2
 27 29  1
 28 30  1
 29 31  1
 29 32  1
 10 12  1
 11 13  1
 17 18  1
 22 23  1
 30 31  2
M  END
> <COMPOUND_NAMES>
Example 260 (R) (Page No: 474)

> <Reference>
WO2019148005

> <IC50_range_nM>
<100

> <smiles>
C[C@H](Cc1nncn1C)c1cccc(c1)N1Cc2c(cc(cc2C(F)(F)F)C2CC2)C1=O

$$$$
C25H25F3N4O
  MOLSOFT 03092310482D

 33 37  0  0  0  0  0  0  0  0999 V2000
    0.0000   -0.0000    0.0000 F   0  0  0
   -0.4015    1.4644    0.0000 C   0  0  0
    1.0393    1.8660    0.0000 F   0  0  0
   -0.8031    2.9289    0.0000 F   0  0  0
   -1.8660    1.0865    0.0000 C   0  0  0
   -2.2675   -0.3543    0.0000 C   0  0  0
   -2.9407    2.1612    0.0000 C   0  0  0
   -3.7320   -0.7322    0.0000 C   0  0  0
   -1.4644   -1.6062    0.0000 C   0  0  0
   -4.4051    1.7833    0.0000 C   0  0  0
   -3.8265   -2.2203    0.0000 C   0  0  0
   -4.8067    0.3425    0.0000 C   0  0  0
   -2.4211   -2.7635    0.0000 N   0  0  0
   -5.1019   -3.0234    0.0000 O   0  0  0
   -2.0431   -4.2044    0.0000 C   0  0  0
   -3.1179   -5.2555    0.0000 C   0  0  0
   -0.6023   -4.5823    0.0000 C   0  0  0
   -2.7399   -6.6963    0.0000 C   0  0  0
   -0.2244   -6.0231    0.0000 C   0  0  0
   -1.2991   -7.0742    0.0000 C   0  0  0
   -3.8146   -7.7474    0.0000 C   0  0  0
    1.2164   -6.4010    0.0000 C   0  0  3
   -3.8265   -9.2355    0.0000 C   0  0  0
   -5.3263   -7.7356    0.0000 C   0  0  0
    2.2675   -5.3263    0.0000 C   0  0  0
   -5.3381   -9.2236    0.0000 C   0  0  0
    3.7084   -5.7042    0.0000 C   0  0  0
    4.8657   -4.7476    0.0000 N   0  0  0
    4.2398   -7.0978    0.0000 N   0  0  0
    6.1176   -5.5507    0.0000 N   0  0  0
    5.7279   -7.0034    0.0000 C   0  0  0
    3.4131   -8.3497    0.0000 C   0  0  0
    1.5787   -7.7533    0.0000 C   0  0  0
  1  2  1
  2  3  1
  2  4  1
  2  5  1
  5  6  2
  5  7  1
  6  8  1
  6  9  1
  7 10  2
  8 11  1
  8 12  2
  9 13  1
 11 14  2
 13 15  1
 15 16  2
 15 17  1
 16 18  1
 17 19  2
 18 20  2
 18 21  1
 22 19  1
 21 23  1
 21 24  1
 22 25  1
 23 26  1
 25 27  1
 27 28  2
 27 29  1
 28 30  1
 29 31  1
 29 32  1
 10 12  1
 11 13  1
 19 20  1
 24 26  1
 30 31  2
 22 33  1
M  END
> <COMPOUND_NAMES>
Example 476 (+/-) (Page No: 625)

> <Reference>
WO2019148005

> <IC50_range_nM>
301-1000

> <smiles>
CC(Cc1nncn1C)c1cc(cc(c1)N1Cc2c(cccc2C(F)(F)F)C1=O)C1CCC1

$$$$
C25H25F3N4O
  MOLSOFT 03092310482D

 33 37  0  0  0  0  0  0  0  0999 V2000
    0.0000   -0.0000    0.0000 F   0  0  0
    1.0985    1.0159    0.0000 C   0  0  0
    2.0908   -0.0827    0.0000 F   0  0  0
    2.1971    2.0317    0.0000 F   0  0  0
    0.0827    2.1380    0.0000 C   0  0  0
   -1.3938    1.8427    0.0000 C   0  0  0
    0.5315    3.5791    0.0000 C   0  0  0
   -2.4097    2.9649    0.0000 C   0  0  0
   -2.1498    0.5552    0.0000 C   0  0  0
   -0.4843    4.7013    0.0000 C   0  0  0
   -3.7917    2.3624    0.0000 C   0  0  0
   -1.9608    4.4060    0.0000 C   0  0  0
   -3.6264    0.8741    0.0000 N   0  0  0
   -0.0354    6.1424    0.0000 C   0  0  0
   -5.1029    3.1302    0.0000 O   0  0  0
   -4.7485   -0.1181    0.0000 C   0  0  0
   -0.3544    7.6189    0.0000 C   0  0  0
    1.0631    7.1582    0.0000 C   0  0  0
   -4.4532   -1.5710    0.0000 C   0  0  0
   -6.1896    0.3544    0.0000 C   0  0  0
   -5.5754   -2.5633    0.0000 C   0  0  0
   -7.3118   -0.6379    0.0000 C   0  0  0
   -7.0165   -2.0908    0.0000 C   0  0  0
   -5.2801   -4.0162    0.0000 C   0  0  0
   -4.9848   -5.4691    0.0000 C   0  0  0
   -3.8272   -3.6972    0.0000 C   0  0  0
   -6.7566   -4.3115    0.0000 C   0  0  0
   -3.5673   -5.9179    0.0000 C   0  0  0
   -3.1184   -7.3354    0.0000 N   0  0  0
   -2.3624   -5.0202    0.0000 N   0  0  0
   -1.6301   -7.3236    0.0000 N   0  0  0
   -1.1576   -5.8943    0.0000 C   0  0  0
   -2.3743   -3.5082    0.0000 C   0  0  0
  1  2  1
  2  3  1
  2  4  1
  2  5  1
  5  6  2
  5  7  1
  6  8  1
  6  9  1
  7 10  2
  8 11  1
  8 12  2
  9 13  1
 10 14  1
 11 15  2
 13 16  1
 14 17  1
 14 18  1
 16 19  2
 16 20  1
 19 21  1
 20 22  2
 21 23  2
 21 24  1
 24 25  1
 24 26  1
 24 27  1
 25 28  1
 28 29  2
 28 30  1
 29 31  1
 30 32  1
 30 33  1
 10 12  1
 11 13  1
 17 18  1
 22 23  1
 31 32  2
M  END
> <COMPOUND_NAMES>
Example 477 (Page No: 627)

> <Reference>
WO2019148005

> <IC50_range_nM>
<100

> <smiles>
CC(C)(Cc1nncn1C)c1cccc(c1)N1Cc2c(cc(cc2C(F)(F)F)C2CC2)C1=O

$$$$
C21H17F5N4O
  MOLSOFT 03092310482D

 31 34  0  0  1  0  0  0  0  0999 V2000
    0.0000   -0.0000    0.0000 F   0  0  0
    1.1025    1.0087    0.0000 C   0  0  0
    2.0995   -0.0938    0.0000 F   0  0  0
    2.2051    2.0291    0.0000 F   0  0  0
    0.0821    2.1347    0.0000 C   0  0  0
   -1.3958    1.8297    0.0000 C   0  0  0
    0.5278    3.5656    0.0000 C   0  0  0
   -2.4162    2.9557    0.0000 C   0  0  0
   -2.1582    0.5395    0.0000 C   0  0  0
   -0.4926    4.6916    0.0000 C   0  0  0
   -3.8002    2.3575    0.0000 C   0  0  0
   -1.9705    4.3867    0.0000 C   0  0  0
   -3.6360    0.8680    0.0000 N   0  0  0
   -5.1139    3.1199    0.0000 O   0  0  0
   -4.7620   -0.1290    0.0000 C   0  0  0
   -4.4571   -1.5834    0.0000 C   0  0  0
   -6.1930    0.3401    0.0000 C   0  0  0
   -5.5831   -2.5687    0.0000 C   0  0  0
   -7.3190   -0.6568    0.0000 C   0  0  0
   -7.0257   -2.0995    0.0000 C   0  0  0
   -5.2781   -4.0231    0.0000 C   0  0  2
   -6.4041   -5.0201    0.0000 C   0  0  0
   -3.8589   -4.4688    0.0000 C   0  0  0
   -6.0991   -6.4745    0.0000 F   0  0  0
   -7.8468   -4.5509    0.0000 F   0  0  0
   -3.5539   -5.9232    0.0000 C   0  0  0
   -4.5626   -7.0257    0.0000 N   0  0  0
   -2.1933   -6.5214    0.0000 N   0  0  0
   -3.8237   -8.3159    0.0000 N   0  0  0
   -2.3575   -7.9992    0.0000 C   0  0  0
   -0.9031   -5.7590    0.0000 C   0  0  0
  1  2  1
  2  3  1
  2  4  1
  2  5  1
  5  6  2
  5  7  1
  6  8  1
  6  9  1
  7 10  2
  8 11  1
  8 12  2
  9 13  1
 11 14  2
 13 15  1
 15 16  2
 15 17  1
 16 18  1
 17 19  2
 18 20  2
 21 18  1
 21 22  1
 21 23  1  1  0
 22 24  1
 22 25  1
 23 26  1
 26 27  2
 26 28  1
 27 29  1
 28 30  1
 28 31  1
 10 12  1
 11 13  1
 19 20  1
 29 30  2
M  END
> <COMPOUND_NAMES>
Example 617 (R) (Page No: 724)

> <Reference>
WO2019148005

> <IC50_range_nM>
101-300

> <smiles>
Cn1cnnc1C[C@@H](C(F)F)c1cccc(c1)N1Cc2c(cccc2C(F)(F)F)C1=O

$$$$
C21H16F6N4O
  MOLSOFT 03092310482D

 32 35  0  0  1  0  0  0  0  0999 V2000
    0.0000   -0.0000    0.0000 F   0  0  0
   -1.3163    0.7589    0.0000 C   0  0  0
   -0.5811    2.0752    0.0000 F   0  0  0
   -2.6325    1.5179    0.0000 F   0  0  0
   -2.0752   -0.5336    0.0000 C   0  0  0
   -1.3400   -1.8262    0.0000 C   0  0  0
   -3.5931   -0.5218    0.0000 C   0  0  0
   -2.0989   -3.1187    0.0000 C   0  0  0
    0.1186   -2.1226    0.0000 C   0  0  0
   -4.3520   -1.8143    0.0000 C   0  0  0
   -1.1028   -4.2215    0.0000 C   0  0  0
   -3.6168   -3.1069    0.0000 C   0  0  0
    0.2609   -3.6049    0.0000 N   0  0  0
   -1.4230   -5.6801    0.0000 O   0  0  0
    1.5534   -4.3401    0.0000 C   0  0  0
    2.8460   -3.5812    0.0000 C   0  0  0
    1.5416   -5.8343    0.0000 C   0  0  0
    4.1385   -4.3164    0.0000 C   0  0  0
    2.8341   -6.5695    0.0000 C   0  0  0
    4.1267   -5.8106    0.0000 C   0  0  0
    5.4311   -3.5575    0.0000 C   0  0  2
    5.4192   -2.0396    0.0000 C   0  0  0
    6.7236   -4.2927    0.0000 C   0  0  0
    5.4074   -0.5218    0.0000 F   0  0  0
    6.9134   -2.0278    0.0000 F   0  0  0
    3.9014   -2.0278    0.0000 F   0  0  0
    6.7118   -5.7868    0.0000 C   0  0  0
    5.4785   -6.6643    0.0000 N   0  0  0
    7.9213   -6.6643    0.0000 N   0  0  0
    5.9291   -8.0873    0.0000 N   0  0  0
    7.4470   -8.0873    0.0000 C   0  0  0
    9.3443   -6.1900    0.0000 C   0  0  0
  1  2  1
  2  3  1
  2  4  1
  2  5  1
  5  6  2
  5  7  1
  6  8  1
  6  9  1
  7 10  2
  8 11  1
  8 12  2
  9 13  1
 11 14  2
 13 15  1
 15 16  2
 15 17  1
 16 18  1
 17 19  2
 18 20  2
 21 18  1
 21 22  1
 21 23  1  6  0
 22 24  1
 22 25  1
 22 26  1
 23 27  1
 27 28  2
 27 29  1
 28 30  1
 29 31  1
 29 32  1
 10 12  1
 11 13  1
 19 20  1
 30 31  2
M  END
> <COMPOUND_NAMES>
Example 471a (R) (Page No: 619)

> <Reference>
WO2019148005

> <IC50_range_nM>
101-300

> <smiles>
Cn1cnnc1C[C@H](c1cccc(c1)N1Cc2c(cccc2C(F)(F)F)C1=O)C(F)(F)F

$$$$
C21H16F6N4O
  MOLSOFT 03092310482D

 32 35  0  0  0  0  0  0  0  0999 V2000
    0.0000   -0.0000    0.0000 F   0  0  0
   -1.3163    0.7589    0.0000 C   0  0  0
   -0.5811    2.0752    0.0000 F   0  0  0
   -2.6325    1.5179    0.0000 F   0  0  0
   -2.0752   -0.5336    0.0000 C   0  0  0
   -1.3400   -1.8262    0.0000 C   0  0  0
   -3.5931   -0.5218    0.0000 C   0  0  0
   -2.0989   -3.1187    0.0000 C   0  0  0
    0.1186   -2.1226    0.0000 C   0  0  0
   -4.3520   -1.8143    0.0000 C   0  0  0
   -1.1028   -4.2215    0.0000 C   0  0  0
   -3.6168   -3.1069    0.0000 C   0  0  0
    0.2609   -3.6049    0.0000 N   0  0  0
   -1.4230   -5.6801    0.0000 O   0  0  0
    1.5534   -4.3401    0.0000 C   0  0  0
    2.8460   -3.5812    0.0000 C   0  0  0
    1.5416   -5.8343    0.0000 C   0  0  0
    4.1385   -4.3164    0.0000 C   0  0  0
    2.8341   -6.5695    0.0000 C   0  0  0
    4.1267   -5.8106    0.0000 C   0  0  0
    5.4311   -3.5575    0.0000 C   0  0  3
    5.4192   -2.0396    0.0000 C   0  0  0
    6.7236   -4.2927    0.0000 C   0  0  0
    5.4074   -0.5218    0.0000 F   0  0  0
    6.9134   -2.0278    0.0000 F   0  0  0
    3.9014   -2.0278    0.0000 F   0  0  0
    6.7118   -5.7868    0.0000 C   0  0  0
    5.4785   -6.6643    0.0000 N   0  0  0
    7.9213   -6.6643    0.0000 N   0  0  0
    5.9291   -8.0873    0.0000 N   0  0  0
    7.4470   -8.0873    0.0000 C   0  0  0
    9.3443   -6.1900    0.0000 C   0  0  0
  1  2  1
  2  3  1
  2  4  1
  2  5  1
  5  6  2
  5  7  1
  6  8  1
  6  9  1
  7 10  2
  8 11  1
  8 12  2
  9 13  1
 11 14  2
 13 15  1
 15 16  2
 15 17  1
 16 18  1
 17 19  2
 18 20  2
 21 18  1
 21 22  1
 22 24  1
 22 25  1
 22 26  1
 23 27  1
 27 28  2
 27 29  1
 28 30  1
 29 31  1
 29 32  1
 10 12  1
 11 13  1
 19 20  1
 30 31  2
 21 23  1
M  END
> <COMPOUND_NAMES>
Example 289 (+/-) (Page No: 496)

> <Reference>
WO2019148005

> <IC50_range_nM>
301-1000

> <smiles>
Cn1cnnc1CC(c1cccc(c1)N1Cc2c(cccc2C(F)(F)F)C1=O)C(F)(F)F

$$$$
C21H16F6N4O
  MOLSOFT 03092310482D

 32 35  0  0  1  0  0  0  0  0999 V2000
    0.0000   -0.0000    0.0000 F   0  0  0
   -1.3163    0.7589    0.0000 C   0  0  0
   -0.5811    2.0752    0.0000 F   0  0  0
   -2.6325    1.5179    0.0000 F   0  0  0
   -2.0752   -0.5336    0.0000 C   0  0  0
   -1.3400   -1.8262    0.0000 C   0  0  0
   -3.5931   -0.5218    0.0000 C   0  0  0
   -2.0989   -3.1187    0.0000 C   0  0  0
    0.1186   -2.1226    0.0000 C   0  0  0
   -4.3520   -1.8143    0.0000 C   0  0  0
   -1.1028   -4.2215    0.0000 C   0  0  0
   -3.6168   -3.1069    0.0000 C   0  0  0
    0.2609   -3.6049    0.0000 N   0  0  0
   -1.4230   -5.6801    0.0000 O   0  0  0
    1.5534   -4.3401    0.0000 C   0  0  0
    2.8460   -3.5812    0.0000 C   0  0  0
    1.5416   -5.8343    0.0000 C   0  0  0
    4.1385   -4.3164    0.0000 C   0  0  0
    2.8341   -6.5695    0.0000 C   0  0  0
    4.1267   -5.8106    0.0000 C   0  0  0
    5.4311   -3.5575    0.0000 C   0  0  1
    5.4192   -2.0396    0.0000 C   0  0  0
    6.7236   -4.2927    0.0000 C   0  0  0
    5.4074   -0.5218    0.0000 F   0  0  0
    6.9134   -2.0278    0.0000 F   0  0  0
    3.9014   -2.0278    0.0000 F   0  0  0
    6.7118   -5.7868    0.0000 C   0  0  0
    5.4785   -6.6643    0.0000 N   0  0  0
    7.9213   -6.6643    0.0000 N   0  0  0
    5.9291   -8.0873    0.0000 N   0  0  0
    7.4470   -8.0873    0.0000 C   0  0  0
    9.3443   -6.1900    0.0000 C   0  0  0
  1  2  1
  2  3  1
  2  4  1
  2  5  1
  5  6  2
  5  7  1
  6  8  1
  6  9  1
  7 10  2
  8 11  1
  8 12  2
  9 13  1
 11 14  2
 13 15  1
 15 16  2
 15 17  1
 16 18  1
 17 19  2
 18 20  2
 21 18  1
 21 22  1
 21 23  1  1  0
 22 24  1
 22 25  1
 22 26  1
 23 27  1
 27 28  2
 27 29  1
 28 30  1
 29 31  1
 29 32  1
 10 12  1
 11 13  1
 19 20  1
 30 31  2
M  END
> <COMPOUND_NAMES>
Example 471b (S) (Page No: 619)

> <Reference>
WO2019148005

> <IC50_range_nM>
3001-10000

> <smiles>
Cn1cnnc1C[C@@H](c1cccc(c1)N1Cc2c(cccc2C(F)(F)F)C1=O)C(F)(F)F

$$$$
C23H19F5N4O
  MOLSOFT 03092310482D

 33 37  0  0  0  0  0  0  0  0999 V2000
    0.0000   -0.0000    0.0000 F   0  0  0
    0.4459    1.4315    0.0000 C   0  0  0
    1.4315    0.3286    0.0000 F   0  0  0
    1.2555    2.6988    0.0000 C   0  0  0
   -0.8214    2.2646    0.0000 C   0  0  0
   -0.0117    3.5319    0.0000 C   0  0  0
   -0.3403    5.0104    0.0000 C   0  0  0
   -1.4433    4.0013    0.0000 C   0  0  0
    0.7627    6.0195    0.0000 C   0  0  0
   -1.7718    5.4797    0.0000 C   0  0  0
   -2.5697    3.0156    0.0000 C   0  0  0
    0.4342    7.4980    0.0000 C   0  0  0
   -2.1004    6.9582    0.0000 C   0  0  0
   -4.0482    3.3442    0.0000 N   0  0  0
   -2.4289    1.5371    0.0000 N   0  0  0
    1.5371    8.5071    0.0000 N   0  0  0
   -0.9974    7.9673    0.0000 C   0  0  0
   -4.8109    2.0534    0.0000 N   0  0  0
   -3.8135    0.9387    0.0000 C   0  0  0
   -1.1382    0.7979    0.0000 C   0  0  0
    1.3729   10.0090    0.0000 C   0  0  0
    2.9922    8.2020    0.0000 C   0  0  0
    0.0587   10.7717    0.0000 O   0  0  0
    2.7340   10.6309    0.0000 C   0  0  0
    3.7314    9.5162    0.0000 C   0  0  0
    3.1799   12.0625    0.0000 C   0  0  0
    5.1864    9.8448    0.0000 C   0  0  0
    4.6349   12.3910    0.0000 C   0  0  0
    5.6323   11.2763    0.0000 C   0  0  0
    6.1720    8.7418    0.0000 C   0  0  0
    5.0456    7.7561    0.0000 F   0  0  0
    7.1577    7.6388    0.0000 F   0  0  0
    7.2750    9.7509    0.0000 F   0  0  0
  1  2  1
  2  3  1
  2  4  1
  2  5  1
  4  6  1
  6  7  1
  6  8  1
  7  9  2
  7 10  1
  8 11  1
  9 12  1
 10 13  2
 11 14  2
 11 15  1
 12 16  1
 12 17  2
 14 18  1
 15 19  1
 15 20  1
 16 21  1
 16 22  1
 21 23  2
 21 24  1
 22 25  1
 24 26  1
 25 27  1
 26 28  2
 27 29  2
 27 30  1
 30 31  1
 30 32  1
 30 33  1
  5  6  1
 13 17  1
 18 19  2
 24 25  2
 28 29  1
M  END
> <COMPOUND_NAMES>
Example 527 (Page No: 667)

> <Reference>
WO2019148005

> <IC50_range_nM>
<100

> <smiles>
Cn1cnnc1CC1(CC(C1)(F)F)c1cccc(c1)N1Cc2c(cccc2C(F)(F)F)C1=O

$$$$
C21H18F4N4O
  MOLSOFT 03092310482D

 30 33  0  0  0  0  0  0  0  0999 V2000
    0.0000   -0.0000    0.0000 F   0  0  0
    1.0987    1.0160    0.0000 C   0  0  0
    2.0910   -0.0827    0.0000 F   0  0  0
    2.1974    2.0320    0.0000 F   0  0  0
    0.0827    2.1383    0.0000 C   0  0  0
   -1.3940    1.8430    0.0000 C   0  0  0
    0.5316    3.5796    0.0000 C   0  0  0
   -2.4100    2.9653    0.0000 C   0  0  0
   -2.1501    0.5552    0.0000 C   0  0  0
   -0.4844    4.7019    0.0000 C   0  0  0
   -3.7922    2.3628    0.0000 C   0  0  0
   -1.9611    4.4066    0.0000 C   0  0  0
   -3.6268    0.8742    0.0000 N   0  0  0
   -5.1036    3.1307    0.0000 O   0  0  0
   -4.7492   -0.1181    0.0000 C   0  0  0
   -4.4538   -1.5712    0.0000 C   0  0  0
   -6.1904    0.3544    0.0000 C   0  0  0
   -5.5761   -2.5636    0.0000 C   0  0  0
   -7.3127   -0.6379    0.0000 C   0  0  0
   -7.0174   -2.0910    0.0000 C   0  0  0
   -5.2808   -4.0167    0.0000 C   0  0  3
   -6.7575   -4.3120    0.0000 F   0  0  0
   -4.9854   -5.4698    0.0000 C   0  0  0
   -3.8277   -3.6977    0.0000 C   0  0  0
   -3.5678   -5.9187    0.0000 C   0  0  0
   -3.1188   -7.3364    0.0000 N   0  0  0
   -2.3628   -5.0209    0.0000 N   0  0  0
   -1.6303   -7.3246    0.0000 N   0  0  0
   -1.1578   -5.8951    0.0000 C   0  0  0
   -2.3746   -3.5087    0.0000 C   0  0  0
  1  2  1
  2  3  1
  2  4  1
  2  5  1
  5  6  2
  5  7  1
  6  8  1
  6  9  1
  7 10  2
  8 11  1
  8 12  2
  9 13  1
 11 14  2
 13 15  1
 15 16  2
 15 17  1
 16 18  1
 17 19  2
 18 20  2
 21 22  1
 21 23  1
 21 24  1
 23 25  1
 25 26  2
 25 27  1
 26 28  1
 27 29  1
 27 30  1
 10 12  1
 11 13  1
 19 20  1
 28 29  2
 21 18  1
M  END
> <COMPOUND_NAMES>
Example 298 (+/-) (Page No: 504)

> <Reference>
WO2019148005

> <IC50_range_nM>
101-300

> <smiles>
CC(Cc1nncn1C)(c1cccc(c1)N1Cc2c(cccc2C(F)(F)F)C1=O)F

$$$$
C21H18F4N4O
  MOLSOFT 03092310482D

 30 33  0  0  1  0  0  0  0  0999 V2000
    0.0000   -0.0000    0.0000 F   0  0  0
    1.0987    1.0160    0.0000 C   0  0  0
    2.0910   -0.0827    0.0000 F   0  0  0
    2.1974    2.0320    0.0000 F   0  0  0
    0.0827    2.1383    0.0000 C   0  0  0
   -1.3940    1.8430    0.0000 C   0  0  0
    0.5316    3.5796    0.0000 C   0  0  0
   -2.4100    2.9653    0.0000 C   0  0  0
   -2.1501    0.5552    0.0000 C   0  0  0
   -0.4844    4.7019    0.0000 C   0  0  0
   -3.7922    2.3628    0.0000 C   0  0  0
   -1.9611    4.4066    0.0000 C   0  0  0
   -3.6268    0.8742    0.0000 N   0  0  0
   -5.1036    3.1307    0.0000 O   0  0  0
   -4.7492   -0.1181    0.0000 C   0  0  0
   -4.4538   -1.5712    0.0000 C   0  0  0
   -6.1904    0.3544    0.0000 C   0  0  0
   -5.5761   -2.5636    0.0000 C   0  0  0
   -7.3127   -0.6379    0.0000 C   0  0  0
   -7.0174   -2.0910    0.0000 C   0  0  0
   -5.2808   -4.0167    0.0000 C   0  0  1
   -6.7575   -4.3120    0.0000 F   0  0  0
   -4.9854   -5.4698    0.0000 C   0  0  0
   -3.8277   -3.6977    0.0000 C   0  0  0
   -3.5678   -5.9187    0.0000 C   0  0  0
   -3.1188   -7.3364    0.0000 N   0  0  0
   -2.3628   -5.0209    0.0000 N   0  0  0
   -1.6303   -7.3246    0.0000 N   0  0  0
   -1.1578   -5.8951    0.0000 C   0  0  0
   -2.3746   -3.5087    0.0000 C   0  0  0
  1  2  1
  2  3  1
  2  4  1
  2  5  1
  5  6  2
  5  7  1
  6  8  1
  6  9  1
  7 10  2
  8 11  1
  8 12  2
  9 13  1
 11 14  2
 13 15  1
 15 16  2
 15 17  1
 16 18  1
 17 19  2
 18 20  2
 21 18  1  6  0
 21 22  1
 21 23  1
 21 24  1
 23 25  1
 25 26  2
 25 27  1
 26 28  1
 27 29  1
 27 30  1
 10 12  1
 11 13  1
 19 20  1
 28 29  2
M  END
> <COMPOUND_NAMES>
Example 298b (S) (Page No: 505)

> <Reference>
WO2019148005

> <IC50_range_nM>
101-300

> <smiles>
C[C@](Cc1nncn1C)(c1cccc(c1)N1Cc2c(cccc2C(F)(F)F)C1=O)F

$$$$
C21H18F4N4O
  MOLSOFT 03092310482D

 30 33  0  0  1  0  0  0  0  0999 V2000
    0.0000   -0.0000    0.0000 F   0  0  0
    1.0987    1.0160    0.0000 C   0  0  0
    2.0910   -0.0827    0.0000 F   0  0  0
    2.1974    2.0320    0.0000 F   0  0  0
    0.0827    2.1383    0.0000 C   0  0  0
   -1.3940    1.8430    0.0000 C   0  0  0
    0.5316    3.5796    0.0000 C   0  0  0
   -2.4100    2.9653    0.0000 C   0  0  0
   -2.1501    0.5552    0.0000 C   0  0  0
   -0.4844    4.7019    0.0000 C   0  0  0
   -3.7922    2.3628    0.0000 C   0  0  0
   -1.9611    4.4066    0.0000 C   0  0  0
   -3.6268    0.8742    0.0000 N   0  0  0
   -5.1036    3.1307    0.0000 O   0  0  0
   -4.7492   -0.1181    0.0000 C   0  0  0
   -4.4538   -1.5712    0.0000 C   0  0  0
   -6.1904    0.3544    0.0000 C   0  0  0
   -5.5761   -2.5636    0.0000 C   0  0  0
   -7.3127   -0.6379    0.0000 C   0  0  0
   -7.0174   -2.0910    0.0000 C   0  0  0
   -5.2808   -4.0167    0.0000 C   0  0  2
   -6.7575   -4.3120    0.0000 F   0  0  0
   -4.9854   -5.4698    0.0000 C   0  0  0
   -3.8277   -3.6977    0.0000 C   0  0  0
   -3.5678   -5.9187    0.0000 C   0  0  0
   -3.1188   -7.3364    0.0000 N   0  0  0
   -2.3628   -5.0209    0.0000 N   0  0  0
   -1.6303   -7.3246    0.0000 N   0  0  0
   -1.1578   -5.8951    0.0000 C   0  0  0
   -2.3746   -3.5087    0.0000 C   0  0  0
  1  2  1
  2  3  1
  2  4  1
  2  5  1
  5  6  2
  5  7  1
  6  8  1
  6  9  1
  7 10  2
  8 11  1
  8 12  2
  9 13  1
 11 14  2
 13 15  1
 15 16  2
 15 17  1
 16 18  1
 17 19  2
 18 20  2
 21 18  1  1  0
 21 22  1
 21 23  1
 21 24  1
 23 25  1
 25 26  2
 25 27  1
 26 28  1
 27 29  1
 27 30  1
 10 12  1
 11 13  1
 19 20  1
 28 29  2
M  END
> <COMPOUND_NAMES>
Example 298a (R) (Page No: 505)

> <Reference>
WO2019148005

> <IC50_range_nM>
1001-3000

> <smiles>
C[C@@](Cc1nncn1C)(c1cccc(c1)N1Cc2c(cccc2C(F)(F)F)C1=O)F

$$$$
C21H18F4N4O
  MOLSOFT 03092310482D

 30 33  0  0  0  0  0  0  0  0999 V2000
    0.0000   -0.0000    0.0000 F   0  0  0
    1.4156   -0.4483    0.0000 C   0  0  0
    2.5245    0.5662    0.0000 C   0  0  0
    1.7223   -1.9110    0.0000 C   0  0  0
    3.9401    0.1180    0.0000 C   0  0  0
    3.1379   -2.3593    0.0000 C   0  0  0
    5.0489    1.1325    0.0000 N   0  0  0
    4.2468   -1.3448    0.0000 C   0  0  0
    3.4446   -3.8221    0.0000 C   0  0  3
    4.8838    2.6424    0.0000 C   0  0  0
    6.5117    0.8258    0.0000 C   0  0  0
    4.8602   -4.2704    0.0000 C   0  0  0
    3.5626    3.4092    0.0000 O   0  0  0
    6.2522    3.2677    0.0000 C   0  0  0
    7.2549    2.1470    0.0000 C   0  0  0
    5.1669   -5.7331    0.0000 C   0  0  0
    6.7005    4.7068    0.0000 C   0  0  0
    8.7177    2.4773    0.0000 C   0  0  0
    6.5353   -6.3348    0.0000 N   0  0  0
    4.1524   -6.8420    0.0000 N   0  0  0
    8.1632    5.0371    0.0000 C   0  0  0
    9.1659    3.9165    0.0000 C   0  0  0
    9.7086    1.3684    0.0000 C   0  0  0
    6.3702   -7.8211    0.0000 N   0  0  0
    4.8956   -8.1278    0.0000 C   0  0  0
    2.6424   -6.6769    0.0000 C   0  0  0
    8.5761    0.3775    0.0000 F   0  0  0
   10.6995    0.2595    0.0000 F   0  0  0
   10.8175    2.3829    0.0000 F   0  0  0
    2.4547   -4.8120    0.0000 C   0  0  0
  1  2  1
  2  3  2
  2  4  1
  3  5  1
  4  6  2
  5  7  1
  5  8  2
  9  6  1
  7 10  1
  7 11  1
  9 12  1
 10 13  2
 10 14  1
 11 15  1
 12 16  1
 14 17  1
 15 18  1
 16 19  2
 16 20  1
 17 21  2
 18 22  2
 18 23  1
 19 24  1
 20 25  1
 20 26  1
 23 27  1
 23 28  1
 23 29  1
  6  8  1
 14 15  2
 21 22  1
 24 25  2
  9 30  1
M  END
> <COMPOUND_NAMES>
Example 281 (+/-) (Page No: 489)

> <Reference>
WO2019148005

> <IC50_range_nM>
101-300

> <smiles>
CC(Cc1nncn1C)c1cc(cc(c1)F)N1Cc2c(cccc2C(F)(F)F)C1=O

$$$$
C21H18F4N4O
  MOLSOFT 03092310482D

 30 33  0  0  1  0  0  0  0  0999 V2000
    0.0000   -0.0000    0.0000 F   0  0  0
    1.4156   -0.4483    0.0000 C   0  0  0
    2.5245    0.5662    0.0000 C   0  0  0
    1.7223   -1.9110    0.0000 C   0  0  0
    3.9401    0.1180    0.0000 C   0  0  0
    3.1379   -2.3593    0.0000 C   0  0  0
    5.0489    1.1325    0.0000 N   0  0  0
    4.2468   -1.3448    0.0000 C   0  0  0
    3.4446   -3.8221    0.0000 C   0  0  1
    4.8838    2.6424    0.0000 C   0  0  0
    6.5117    0.8258    0.0000 C   0  0  0
    4.8602   -4.2704    0.0000 C   0  0  0
    2.3121   -4.8130    0.0000 C   0  0  0
    3.5626    3.4092    0.0000 O   0  0  0
    6.2522    3.2677    0.0000 C   0  0  0
    7.2549    2.1470    0.0000 C   0  0  0
    5.1669   -5.7331    0.0000 C   0  0  0
    6.7005    4.7068    0.0000 C   0  0  0
    8.7177    2.4773    0.0000 C   0  0  0
    6.5353   -6.3348    0.0000 N   0  0  0
    4.1524   -6.8420    0.0000 N   0  0  0
    8.1632    5.0371    0.0000 C   0  0  0
    9.1659    3.9165    0.0000 C   0  0  0
    9.7086    1.3684    0.0000 C   0  0  0
    6.3702   -7.8211    0.0000 N   0  0  0
    4.8956   -8.1278    0.0000 C   0  0  0
    2.6424   -6.6769    0.0000 C   0  0  0
    8.5761    0.3775    0.0000 F   0  0  0
   10.6995    0.2595    0.0000 F   0  0  0
   10.8175    2.3829    0.0000 F   0  0  0
  1  2  1
  2  3  2
  2  4  1
  3  5  1
  4  6  2
  5  7  1
  5  8  2
  9  6  1
  7 10  1
  7 11  1
  9 12  1
  9 13  1  1  0
 10 14  2
 10 15  1
 11 16  1
 12 17  1
 15 18  1
 16 19  1
 17 20  2
 17 21  1
 18 22  2
 19 23  2
 19 24  1
 20 25  1
 21 26  1
 21 27  1
 24 28  1
 24 29  1
 24 30  1
  6  8  1
 15 16  2
 22 23  1
 25 26  2
M  END
> <COMPOUND_NAMES>
Example 281a (R) (Page No: 489)

> <Reference>
WO2019148005

> <IC50_range_nM>
101-300

> <smiles>
C[C@H](Cc1nncn1C)c1cc(cc(c1)F)N1Cc2c(cccc2C(F)(F)F)C1=O

$$$$
C21H18F4N4O
  MOLSOFT 03092310482D

 30 33  0  0  1  0  0  0  0  0999 V2000
    0.0000   -0.0000    0.0000 F   0  0  0
    1.4156   -0.4483    0.0000 C   0  0  0
    2.5245    0.5662    0.0000 C   0  0  0
    1.7223   -1.9110    0.0000 C   0  0  0
    3.9401    0.1180    0.0000 C   0  0  0
    3.1379   -2.3593    0.0000 C   0  0  0
    5.0489    1.1325    0.0000 N   0  0  0
    4.2468   -1.3448    0.0000 C   0  0  0
    3.4446   -3.8221    0.0000 C   0  0  2
    4.8838    2.6424    0.0000 C   0  0  0
    6.5117    0.8258    0.0000 C   0  0  0
    4.8602   -4.2704    0.0000 C   0  0  0
    2.3121   -4.8130    0.0000 C   0  0  0
    3.5626    3.4092    0.0000 O   0  0  0
    6.2522    3.2677    0.0000 C   0  0  0
    7.2549    2.1470    0.0000 C   0  0  0
    5.1669   -5.7331    0.0000 C   0  0  0
    6.7005    4.7068    0.0000 C   0  0  0
    8.7177    2.4773    0.0000 C   0  0  0
    6.5353   -6.3348    0.0000 N   0  0  0
    4.1524   -6.8420    0.0000 N   0  0  0
    8.1632    5.0371    0.0000 C   0  0  0
    9.1659    3.9165    0.0000 C   0  0  0
    9.7086    1.3684    0.0000 C   0  0  0
    6.3702   -7.8211    0.0000 N   0  0  0
    4.8956   -8.1278    0.0000 C   0  0  0
    2.6424   -6.6769    0.0000 C   0  0  0
    8.5761    0.3775    0.0000 F   0  0  0
   10.6995    0.2595    0.0000 F   0  0  0
   10.8175    2.3829    0.0000 F   0  0  0
  1  2  1
  2  3  2
  2  4  1
  3  5  1
  4  6  2
  5  7  1
  5  8  2
  9  6  1
  7 10  1
  7 11  1
  9 12  1
  9 13  1  6  0
 10 14  2
 10 15  1
 11 16  1
 12 17  1
 15 18  1
 16 19  1
 17 20  2
 17 21  1
 18 22  2
 19 23  2
 19 24  1
 20 25  1
 21 26  1
 21 27  1
 24 28  1
 24 29  1
 24 30  1
  6  8  1
 15 16  2
 22 23  1
 25 26  2
M  END
> <COMPOUND_NAMES>
Example 281b (S) (Page No: 489)

> <Reference>
WO2019148005

> <IC50_range_nM>
3001-10000

> <smiles>
C[C@@H](Cc1nncn1C)c1cc(cc(c1)F)N1Cc2c(cccc2C(F)(F)F)C1=O

$$$$
C21H18F4N4O
  MOLSOFT 03092310482D

 30 33  0  0  1  0  0  0  0  0999 V2000
    0.0000   -0.0000    0.0000 F   0  0  0
    1.1072    1.0130    0.0000 C   0  0  0
    2.5207    0.5654    0.0000 C   0  0  0
    0.7774    2.4971    0.0000 C   0  0  0
    3.6279    1.5784    0.0000 C   0  0  0
    2.8269   -0.8952    0.0000 C   0  0  1
    1.8846    3.5101    0.0000 C   0  0  0
    3.2981    3.0625    0.0000 C   0  0  0
    4.2404   -1.3428    0.0000 C   0  0  0
    1.6962   -1.8846    0.0000 C   0  0  0
    4.4053    4.0755    0.0000 N   0  0  0
    4.5467   -2.8034    0.0000 C   0  0  0
    4.2404    5.5832    0.0000 C   0  0  0
    5.8659    3.7693    0.0000 C   0  0  0
    5.9130   -3.4041    0.0000 N   0  0  0
    3.5337   -3.9106    0.0000 N   0  0  0
    2.9212    6.3488    0.0000 O   0  0  0
    5.6068    6.2075    0.0000 C   0  0  0
    6.6080    5.0885    0.0000 C   0  0  0
    5.7481   -4.8883    0.0000 N   0  0  0
    4.2758   -5.1945    0.0000 C   0  0  0
    2.0260   -3.7457    0.0000 C   0  0  0
    6.0544    7.6445    0.0000 C   0  0  0
    8.0686    5.4183    0.0000 C   0  0  0
    7.5150    7.9743    0.0000 C   0  0  0
    8.5162    6.8553    0.0000 C   0  0  0
    9.0580    4.3111    0.0000 C   0  0  0
    7.9272    3.3217    0.0000 F   0  0  0
   10.0474    3.2039    0.0000 F   0  0  0
   10.1652    5.3241    0.0000 F   0  0  0
  1  2  1
  2  3  2
  2  4  1
  3  5  1
  6  3  1
  4  7  2
  5  8  2
  6  9  1
  6 10  1  1  0
  8 11  1
  9 12  1
 11 13  1
 11 14  1
 12 15  2
 12 16  1
 13 17  2
 13 18  1
 14 19  1
 15 20  1
 16 21  1
 16 22  1
 18 23  1
 19 24  1
 23 25  2
 24 26  2
 24 27  1
 27 28  1
 27 29  1
 27 30  1
  7  8  1
 18 19  2
 20 21  2
 25 26  1
M  END
> <COMPOUND_NAMES>
Example 280 (R) (Page No: 487)

> <Reference>
WO2019148005

> <IC50_range_nM>
3001-10000

> <smiles>
C[C@H](Cc1nncn1C)c1cc(ccc1F)N1Cc2c(cccc2C(F)(F)F)C1=O

$$$$
C24H23F3N4O2
  MOLSOFT 03092310482D

 33 37  0  0  0  0  0  0  0  0999 V2000
    0.0000   -0.0000    0.0000 F   0  0  0
    1.1023    1.0085    0.0000 C   0  0  0
    2.0990   -0.0938    0.0000 F   0  0  0
    2.2046    2.0287    0.0000 F   0  0  0
    0.0821    2.1342    0.0000 C   0  0  0
   -1.3954    1.8293    0.0000 C   0  0  0
    0.5277    3.5648    0.0000 C   0  0  0
   -2.4156    2.9550    0.0000 C   0  0  0
   -2.1577    0.5394    0.0000 C   0  0  0
   -0.4925    4.6906    0.0000 C   0  0  0
   -3.7993    2.3570    0.0000 C   0  0  0
   -1.9700    4.3857    0.0000 C   0  0  0
   -3.6352    0.8678    0.0000 N   0  0  0
   -5.1127    3.1192    0.0000 O   0  0  0
   -4.7609   -0.1290    0.0000 C   0  0  0
   -4.4560   -1.5831    0.0000 C   0  0  0
   -6.1915    0.3401    0.0000 C   0  0  0
   -5.5818   -2.5681    0.0000 C   0  0  0
   -7.3173   -0.6567    0.0000 C   0  0  0
   -7.0241   -2.0990    0.0000 C   0  0  0
   -5.2769   -4.0221    0.0000 C   0  0  0
   -4.0339   -4.8313    0.0000 C   0  0  0
   -6.1094   -5.2651    0.0000 C   0  0  0
   -6.7075   -3.5531    0.0000 C   0  0  0
   -4.8664   -6.0743    0.0000 C   0  0  0
   -7.8332   -4.5498    0.0000 C   0  0  0
   -4.5616   -7.5283    0.0000 C   0  0  0
   -9.3107   -4.2215    0.0000 N   0  0  0
   -7.6925   -6.0274    0.0000 N   0  0  0
   -5.6873   -8.5251    0.0000 O   0  0  0
  -10.0730   -5.5114    0.0000 N   0  0  0
   -9.0762   -6.6254    0.0000 C   0  0  0
   -6.4026   -6.7661    0.0000 C   0  0  0
  1  2  1
  2  3  1
  2  4  1
  2  5  1
  5  6  2
  5  7  1
  6  8  1
  6  9  1
  7 10  2
  8 11  1
  8 12  2
  9 13  1
 11 14  2
 13 15  1
 15 16  2
 15 17  1
 16 18  1
 17 19  2
 18 20  2
 18 21  1
 21 22  1
 21 23  1
 21 24  1
 22 25  1
 24 26  1
 25 27  1
 26 28  2
 26 29  1
 27 30  1
 28 31  1
 29 32  1
 29 33  1
 10 12  1
 11 13  1
 19 20  1
 23 25  1
 31 32  2
M  END
> <COMPOUND_NAMES>
Example 470 (Stereo) (Page No: 617)

> <Reference>
WO2019148005

> <IC50_range_nM>
101-300

> <smiles>
Cn1cnnc1CC1(CC(C1)CO)c1cccc(c1)N1Cc2c(cccc2C(F)(F)F)C1=O

$$$$
C22H21F3N4O2
  MOLSOFT 03092310482D

 31 34  0  0  1  0  0  0  0  0999 V2000
    0.0000   -0.0000    0.0000 F   0  0  0
    1.1044    1.0104    0.0000 C   0  0  0
    2.0913   -0.0940    0.0000 F   0  0  0
    2.2088    2.0208    0.0000 F   0  0  0
    0.0940    2.1383    0.0000 C   0  0  0
   -1.3864    1.8329    0.0000 C   0  0  0
    0.5405    3.5717    0.0000 C   0  0  0
   -2.3968    2.9608    0.0000 C   0  0  0
   -2.1501    0.5405    0.0000 C   0  0  0
   -0.4700    4.6996    0.0000 C   0  0  0
   -3.7832    2.3616    0.0000 C   0  0  0
   -1.9503    4.3941    0.0000 C   0  0  0
   -3.6305    0.8694    0.0000 N   0  0  0
   -0.0235    6.1330    0.0000 C   0  0  0
   -5.0991    3.1252    0.0000 O   0  0  0
   -4.7584   -0.1175    0.0000 C   0  0  0
    1.4334    6.4620    0.0000 O   0  0  0
   -4.4529   -1.5744    0.0000 C   0  0  0
   -6.1917    0.3525    0.0000 C   0  0  0
   -5.5808   -2.5613    0.0000 C   0  0  0
   -7.3197   -0.6344    0.0000 C   0  0  0
   -7.0142   -2.0913    0.0000 C   0  0  0
   -5.2753   -4.0182    0.0000 C   0  0  1
   -3.8654   -4.4646    0.0000 C   0  0  0
   -6.4032   -5.0051    0.0000 C   0  0  0
   -3.5600   -5.9215    0.0000 C   0  0  0
   -2.1971   -6.5207    0.0000 N   0  0  0
   -4.5704   -7.0259    0.0000 N   0  0  0
   -2.3616   -8.0011    0.0000 N   0  0  0
   -3.8302   -8.3066    0.0000 C   0  0  0
   -6.0743   -6.8614    0.0000 C   0  0  0
  1  2  1
  2  3  1
  2  4  1
  2  5  1
  5  6  2
  5  7  1
  6  8  1
  6  9  1
  7 10  2
  8 11  1
  8 12  2
  9 13  1
 10 14  1
 11 15  2
 13 16  1
 14 17  1
 16 18  2
 16 19  1
 18 20  1
 19 21  2
 20 22  2
 23 20  1
 23 24  1
 23 25  1  1  0
 24 26  1
 26 27  2
 26 28  1
 27 29  1
 28 30  1
 28 31  1
 10 12  1
 11 13  1
 21 22  1
 29 30  2
M  END
> <COMPOUND_NAMES>
Example 392 (R) (Page No: 567)

> <Reference>
WO2019148005

> <IC50_range_nM>
<100

> <smiles>
C[C@H](Cc1nncn1C)c1cccc(c1)N1Cc2c(cc(CO)cc2C(F)(F)F)C1=O

$$$$
C23H23F3N4O2
  MOLSOFT 03092310482D

 32 35  0  0  1  0  0  0  0  0999 V2000
    0.0000   -0.0000    0.0000 F   0  0  0
   -0.0118   -1.4905    0.0000 C   0  0  0
    1.4787   -1.4787    0.0000 F   0  0  0
   -1.5260   -1.4787    0.0000 F   0  0  0
   -0.0237   -2.9810    0.0000 C   0  0  0
   -1.3367   -3.7144    0.0000 C   0  0  0
    1.2657   -3.7144    0.0000 C   0  0  0
   -1.3485   -5.2049    0.0000 C   0  0  0
   -2.7799   -3.2412    0.0000 C   0  0  0
    1.2539   -5.2049    0.0000 C   0  0  0
   -2.7917   -5.6544    0.0000 C   0  0  0
   -0.0591   -5.9383    0.0000 C   0  0  0
   -3.6789   -4.4478    0.0000 N   0  0  0
    2.5433   -5.9383    0.0000 C   0  0  3
   -3.2649   -7.0739    0.0000 O   0  0  0
   -5.1930   -4.4360    0.0000 C   0  0  0
    2.5315   -7.4287    0.0000 O   0  0  0
    3.8327   -5.1812    0.0000 C   0  0  0
   -5.9501   -5.7253    0.0000 C   0  0  0
   -5.9501   -3.1229    0.0000 C   0  0  0
   -7.4642   -5.7135    0.0000 C   0  0  0
   -7.4642   -3.1111    0.0000 C   0  0  0
   -8.2213   -4.4005    0.0000 C   0  0  0
   -8.2213   -7.0029    0.0000 C   0  0  2
   -9.7354   -6.9911    0.0000 C   0  0  0
   -7.4879   -8.2923    0.0000 C   0  0  0
  -10.4925   -8.2804    0.0000 C   0  0  0
   -9.8892   -9.6408    0.0000 N   0  0  0
  -11.9948   -8.4224    0.0000 N   0  0  0
  -11.0130  -10.6345    0.0000 N   0  0  0
  -12.3142   -9.8774    0.0000 C   0  0  0
  -13.0121   -7.2986    0.0000 C   0  0  0
  1  2  1
  2  3  1
  2  4  1
  2  5  1
  5  6  2
  5  7  1
  6  8  1
  6  9  1
  7 10  2
  8 11  1
  8 12  2
  9 13  1
 14 10  1
 11 15  2
 13 16  1
 14 17  1
 14 18  1
 16 19  2
 16 20  1
 19 21  1
 20 22  2
 21 23  2
 24 21  1
 24 25  1
 24 26  1  1  0
 25 27  1
 27 28  2
 27 29  1
 28 30  1
 29 31  1
 29 32  1
 10 12  1
 11 13  1
 22 23  1
 30 31  2
M  END
> <COMPOUND_NAMES>
Example 436 (R) (Page No: 590)

> <Reference>
WO2019148005

> <IC50_range_nM>
<100

> <smiles>
CC(c1cc2C(N(Cc2c(c1)C(F)(F)F)c1cccc(c1)[C@@H](C)Cc1nncn1C)=O)O

$$$$
C24H25F3N4O2
  MOLSOFT 03092310482D

 33 36  0  0  1  0  0  0  0  0999 V2000
    0.0000   -0.0000    0.0000 F   0  0  0
    1.1045    1.0105    0.0000 C   0  0  0
    2.0915   -0.0940    0.0000 F   0  0  0
    2.2090    2.0210    0.0000 F   0  0  0
    0.0940    2.1385    0.0000 C   0  0  0
   -1.3865    1.8330    0.0000 C   0  0  0
    0.5405    3.5720    0.0000 C   0  0  0
   -2.3970    2.9610    0.0000 C   0  0  0
   -2.1503    0.5405    0.0000 C   0  0  0
   -0.4700    4.7000    0.0000 C   0  0  0
   -3.7835    2.3618    0.0000 C   0  0  0
   -1.9505    4.3945    0.0000 C   0  0  0
   -3.6308    0.8695    0.0000 N   0  0  0
   -0.0235    6.1336    0.0000 C   0  0  0
   -5.0995    3.1255    0.0000 O   0  0  0
   -4.7588   -0.1175    0.0000 C   0  0  0
   -1.4570    6.6036    0.0000 O   0  0  0
    1.3865    5.6871    0.0000 C   0  0  0
    0.4230    7.5671    0.0000 C   0  0  0
   -4.4533   -1.5745    0.0000 C   0  0  0
   -6.1923    0.3525    0.0000 C   0  0  0
   -5.5813   -2.5615    0.0000 C   0  0  0
   -7.3203   -0.6345    0.0000 C   0  0  0
   -7.0148   -2.0915    0.0000 C   0  0  0
   -5.2758   -4.0185    0.0000 C   0  0  1
   -3.8658   -4.4650    0.0000 C   0  0  0
   -6.4038   -5.0055    0.0000 C   0  0  0
   -3.5603   -5.9221    0.0000 C   0  0  0
   -2.1973   -6.5213    0.0000 N   0  0  0
   -4.5708   -7.0266    0.0000 N   0  0  0
   -2.3618   -8.0018    0.0000 N   0  0  0
   -3.8305   -8.3073    0.0000 C   0  0  0
   -6.0748   -6.8621    0.0000 C   0  0  0
  1  2  1
  2  3  1
  2  4  1
  2  5  1
  5  6  2
  5  7  1
  6  8  1
  6  9  1
  7 10  2
  8 11  1
  8 12  2
  9 13  1
 10 14  1
 11 15  2
 13 16  1
 14 17  1
 14 18  1
 14 19  1
 16 20  2
 16 21  1
 20 22  1
 21 23  2
 22 24  2
 25 22  1
 25 26  1
 25 27  1  1  0
 26 28  1
 28 29  2
 28 30  1
 29 31  1
 30 32  1
 30 33  1
 10 12  1
 11 13  1
 23 24  1
 31 32  2
M  END
> <COMPOUND_NAMES>
Example 374 (R) (Page No: 552)

> <Reference>
WO2019148005

> <IC50_range_nM>
<100

> <smiles>
C[C@H](Cc1nncn1C)c1cccc(c1)N1Cc2c(cc(cc2C(F)(F)F)C(C)(C)O)C1=O

$$$$
C22H19F3N4O3
  MOLSOFT 03092310482D

 32 35  0  0  1  0  0  0  0  0999 V2000
    0.0000   -0.0000    0.0000 F   0  0  0
    1.1041    1.0101    0.0000 C   0  0  0
    2.0908   -0.0940    0.0000 F   0  0  0
    2.2082    2.0203    0.0000 F   0  0  0
    0.0940    2.1377    0.0000 C   0  0  0
   -1.3860    1.8324    0.0000 C   0  0  0
    0.5403    3.5707    0.0000 C   0  0  0
   -2.3962    2.9600    0.0000 C   0  0  0
   -2.1495    0.5403    0.0000 C   0  0  0
   -0.4698    4.6983    0.0000 C   0  0  0
   -3.7822    2.3609    0.0000 C   0  0  0
   -1.9498    4.3929    0.0000 C   0  0  0
   -3.6295    0.8692    0.0000 N   0  0  0
   -0.0235    6.1313    0.0000 C   0  0  0
   -5.0977    3.1244    0.0000 O   0  0  0
   -4.7571   -0.1175    0.0000 C   0  0  0
   -1.0336    7.2589    0.0000 O   0  0  0
    1.4330    6.4602    0.0000 O   0  0  0
   -4.4517   -1.5739    0.0000 C   0  0  0
   -6.1901    0.3524    0.0000 C   0  0  0
   -5.5793   -2.5606    0.0000 C   0  0  0
   -7.3177   -0.6343    0.0000 C   0  0  0
   -7.0123   -2.0908    0.0000 C   0  0  0
   -5.2739   -4.0171    0.0000 C   0  0  1
   -3.8644   -4.4634    0.0000 C   0  0  0
   -6.4015   -5.0037    0.0000 C   0  0  0
   -3.5590   -5.9199    0.0000 C   0  0  0
   -2.1965   -6.5189    0.0000 N   0  0  0
   -4.5691   -7.0240    0.0000 N   0  0  0
   -2.3609   -7.9989    0.0000 N   0  0  0
   -3.8291   -8.3043    0.0000 C   0  0  0
   -6.0726   -6.8596    0.0000 C   0  0  0
  1  2  1
  2  3  1
  2  4  1
  2  5  1
  5  6  2
  5  7  1
  6  8  1
  6  9  1
  7 10  2
  8 11  1
  8 12  2
  9 13  1
 10 14  1
 11 15  2
 13 16  1
 14 17  2
 14 18  1
 16 19  2
 16 20  1
 19 21  1
 20 22  2
 21 23  2
 24 21  1
 24 25  1
 24 26  1  1  0
 25 27  1
 27 28  2
 27 29  1
 28 30  1
 29 31  1
 29 32  1
 10 12  1
 11 13  1
 22 23  1
 30 31  2
M  END
> <COMPOUND_NAMES>
Example 273 (R) (Page No: 483)

> <Reference>
WO2019148005

> <IC50_range_nM>
1001-3000

> <smiles>
C[C@H](Cc1nncn1C)c1cccc(c1)N1Cc2c(cc(cc2C(F)(F)F)C(O)=O)C1=O

$$$$
C21H19F3N4O
  MOLSOFT 03092310482D

 29 32  0  0  1  0  0  0  0  0999 V2000
    0.0000   -0.0000    0.0000 F   0  0  0
    1.1029    1.0090    0.0000 C   0  0  0
    2.1002   -0.0939    0.0000 F   0  0  0
    2.2058    2.0298    0.0000 F   0  0  0
    0.0821    2.1354    0.0000 C   0  0  0
   -1.3962    1.8303    0.0000 C   0  0  0
    0.5280    3.5668    0.0000 C   0  0  0
   -2.4170    2.9567    0.0000 C   0  0  0
   -2.1588    0.5397    0.0000 C   0  0  0
   -0.4928    4.6931    0.0000 C   0  0  0
   -3.8014    2.3583    0.0000 C   0  0  0
   -1.9711    4.3881    0.0000 C   0  0  0
   -3.6372    0.8682    0.0000 N   0  0  0
   -5.1155    3.1209    0.0000 O   0  0  0
   -4.7635   -0.1291    0.0000 C   0  0  0
   -4.4585   -1.5839    0.0000 C   0  0  0
   -6.1949    0.3403    0.0000 C   0  0  0
   -5.5848   -2.5695    0.0000 C   0  0  0
   -7.3213   -0.6570    0.0000 C   0  0  0
   -7.0280   -2.1002    0.0000 C   0  0  0
   -5.2798   -4.0244    0.0000 C   0  0  1
   -3.8601   -4.4702    0.0000 C   0  0  0
   -6.4061   -5.0217    0.0000 C   0  0  0
   -3.5550   -5.9251    0.0000 C   0  0  0
   -2.1940   -6.5235    0.0000 N   0  0  0
   -4.5641   -7.0280    0.0000 N   0  0  0
   -2.3583   -8.0018    0.0000 N   0  0  0
   -3.8249   -8.3186    0.0000 C   0  0  0
   -1.2554   -8.9991    0.0000 C   0  0  0
  1  2  1
  2  3  1
  2  4  1
  2  5  1
  5  6  2
  5  7  1
  6  8  1
  6  9  1
  7 10  2
  8 11  1
  8 12  2
  9 13  1
 11 14  2
 13 15  1
 15 16  2
 15 17  1
 16 18  1
 17 19  2
 18 20  2
 21 18  1
 21 22  1
 21 23  1  1  0
 22 24  1
 24 25  2
 24 26  1
 25 27  1
 26 28  2
 27 29  1
 10 12  1
 11 13  1
 19 20  1
 27 28  1
M  END
> <COMPOUND_NAMES>
Example 263 (R) (Page No: 476)

> <Reference>
WO2019148005

> <IC50_range_nM>
3001-10000

> <smiles>
C[C@H](Cc1ncn(C)n1)c1cccc(c1)N1Cc2c(cccc2C(F)(F)F)C1=O

$$$$
C21H19F3N4O
  MOLSOFT 03092310482D

 29 32  0  0  1  0  0  0  0  0999 V2000
    0.0000   -0.0000    0.0000 F   0  0  0
    1.1043    1.0103    0.0000 C   0  0  0
    2.0911   -0.0940    0.0000 F   0  0  0
    2.2086    2.0206    0.0000 F   0  0  0
    0.0940    2.1381    0.0000 C   0  0  0
   -1.3862    1.8327    0.0000 C   0  0  0
    0.5404    3.5713    0.0000 C   0  0  0
   -2.3965    2.9604    0.0000 C   0  0  0
   -2.1498    0.5404    0.0000 C   0  0  0
   -0.4699    4.6991    0.0000 C   0  0  0
   -3.7828    2.3613    0.0000 C   0  0  0
   -1.9501    4.3937    0.0000 C   0  0  0
   -3.6301    0.8693    0.0000 N   0  0  0
   -5.0985    3.1249    0.0000 O   0  0  0
   -4.7579   -0.1175    0.0000 C   0  0  0
   -4.4524   -1.5742    0.0000 C   0  0  0
   -6.1911    0.3524    0.0000 C   0  0  0
   -5.5802   -2.5610    0.0000 C   0  0  0
   -7.3189   -0.6344    0.0000 C   0  0  0
   -7.0134   -2.0911    0.0000 C   0  0  0
   -5.2748   -4.0177    0.0000 C   0  0  1
   -3.8650   -4.4642    0.0000 C   0  0  0
   -6.4025   -5.0046    0.0000 C   0  0  0
   -3.5596   -5.9209    0.0000 C   0  0  0
   -2.1968   -6.5200    0.0000 N   0  0  0
   -4.5699   -7.0252    0.0000 N   0  0  0
   -2.3613   -8.0002    0.0000 C   0  0  0
   -3.8298   -8.3057    0.0000 N   0  0  0
   -6.0736   -6.8607    0.0000 C   0  0  0
  1  2  1
  2  3  1
  2  4  1
  2  5  1
  5  6  2
  5  7  1
  6  8  1
  6  9  1
  7 10  2
  8 11  1
  8 12  2
  9 13  1
 11 14  2
 13 15  1
 15 16  2
 15 17  1
 16 18  1
 17 19  2
 18 20  2
 21 18  1
 21 22  1
 21 23  1  1  0
 22 24  1
 24 25  2
 24 26  1
 25 27  1
 26 28  1
 26 29  1
 10 12  1
 11 13  1
 19 20  1
 27 28  2
M  END
> <COMPOUND_NAMES>
Example 264 (R) (Page No: 476)

> <Reference>
WO2019148005

> <IC50_range_nM>
3001-10000

> <smiles>
C[C@H](Cc1ncnn1C)c1cccc(c1)N1Cc2c(cccc2C(F)(F)F)C1=O

$$$$
C21H19F3N4O2
  MOLSOFT 03092310482D

 30 33  0  0  1  0  0  0  0  0999 V2000
    0.0000   -0.0000    0.0000 F   0  0  0
    1.1044    1.0104    0.0000 C   0  0  0
    2.0912   -0.0940    0.0000 F   0  0  0
    2.2087    2.0208    0.0000 F   0  0  0
    0.0940    2.1382    0.0000 C   0  0  0
   -1.3863    1.8328    0.0000 C   0  0  0
    0.5404    3.5716    0.0000 C   0  0  0
   -2.3967    2.9606    0.0000 C   0  0  0
   -2.1500    0.5404    0.0000 C   0  0  0
   -0.4699    4.6994    0.0000 C   0  0  0
   -3.7830    2.3615    0.0000 C   0  0  0
   -1.9503    4.3940    0.0000 C   0  0  0
   -3.6303    0.8694    0.0000 N   0  0  0
   -5.0989    3.1251    0.0000 O   0  0  0
   -4.7582   -0.1175    0.0000 C   0  0  0
   -4.4527   -1.5743    0.0000 C   0  0  0
   -6.1915    0.3525    0.0000 C   0  0  0
   -5.5806   -2.5612    0.0000 C   0  0  0
   -7.3194   -0.6344    0.0000 C   0  0  0
   -7.0139   -2.0912    0.0000 C   0  0  0
   -5.2751   -4.0180    0.0000 C   0  0  2
   -3.8653   -4.4645    0.0000 C   0  0  2
   -6.4030   -5.0049    0.0000 C   0  0  0
   -2.7609   -3.4541    0.0000 O   0  0  0
   -3.5598   -5.9213    0.0000 C   0  0  0
   -2.1970   -6.5205    0.0000 N   0  0  0
   -4.5702   -7.0256    0.0000 N   0  0  0
   -2.3615   -8.0008    0.0000 N   0  0  0
   -3.8300   -8.3062    0.0000 C   0  0  0
   -6.0740   -6.8612    0.0000 C   0  0  0
  1  2  1
  2  3  1
  2  4  1
  2  5  1
  5  6  2
  5  7  1
  6  8  1
  6  9  1
  7 10  2
  8 11  1
  8 12  2
  9 13  1
 11 14  2
 13 15  1
 15 16  2
 15 17  1
 16 18  1
 17 19  2
 18 20  2
 21 18  1
 21 22  1
 21 23  1  6  0
 22 24  1  6  0
 22 25  1
 25 26  2
 25 27  1
 26 28  1
 27 29  1
 27 30  1
 10 12  1
 11 13  1
 19 20  1
 28 29  2
M  END
> <COMPOUND_NAMES>
Example 292 (cis) (Page No: 498)

> <Reference>
WO2019148005

> <IC50_range_nM>
1001-3000

> <smiles>
C[C@H](c1cccc(c1)N1Cc2c(cccc2C(F)(F)F)C1=O)[C@@H](c1nncn1C)O

$$$$
C26H28F3N5O
  MOLSOFT 03092310482D

 35 39  0  0  1  0  0  0  0  0999 V2000
    0.0000   -0.0000    0.0000 F   0  0  0
    1.1039    1.0100    0.0000 C   0  0  0
    2.0904   -0.0940    0.0000 F   0  0  0
    2.2079    2.0200    0.0000 F   0  0  0
    0.0940    2.1374    0.0000 C   0  0  0
   -1.3858    1.8321    0.0000 C   0  0  0
    0.5402    3.5702    0.0000 C   0  0  0
   -2.3958    2.9595    0.0000 C   0  0  0
   -2.1492    0.5402    0.0000 C   0  0  0
   -0.4698    4.6976    0.0000 C   0  0  0
   -3.7816    2.3606    0.0000 C   0  0  0
   -1.9495    4.3923    0.0000 C   0  0  0
   -3.6289    0.8691    0.0000 N   0  0  0
   -0.0235    6.1304    0.0000 C   0  0  2
   -5.0969    3.1239    0.0000 O   0  0  0
   -4.7563   -0.1174    0.0000 C   0  0  0
    1.4328    6.4592    0.0000 C   0  0  0
   -1.0335    7.2578    0.0000 C   0  0  0
   -4.4510   -1.5737    0.0000 C   0  0  0
   -6.1891    0.3523    0.0000 C   0  0  0
    1.8791    7.8920    0.0000 N   0  0  0
   -0.5872    8.6906    0.0000 C   0  0  0
   -5.5784   -2.5602    0.0000 C   0  0  0
   -7.3166   -0.6342    0.0000 C   0  0  0
    0.8691    9.0194    0.0000 C   0  0  0
   -7.0112   -2.0904    0.0000 C   0  0  0
   -5.2731   -4.0165    0.0000 C   0  0  1
   -3.8638   -4.4627    0.0000 C   0  0  0
   -6.4005   -5.0030    0.0000 C   0  0  0
   -3.5585   -5.9190    0.0000 C   0  0  0
   -2.1961   -6.5180    0.0000 N   0  0  0
   -4.5684   -7.0230    0.0000 N   0  0  0
   -2.3606   -7.9977    0.0000 N   0  0  0
   -3.8286   -8.3031    0.0000 C   0  0  0
   -6.0717   -6.8585    0.0000 C   0  0  0
  1  2  1
  2  3  1
  2  4  1
  2  5  1
  5  6  2
  5  7  1
  6  8  1
  6  9  1
  7 10  2
  8 11  1
  8 12  2
  9 13  1
 14 10  1  1  0
 11 15  2
 13 16  1
 14 17  1
 14 18  1
 16 19  2
 16 20  1
 17 21  1
 18 22  1
 19 23  1
 20 24  2
 21 25  1
 23 26  2
 27 23  1
 27 28  1
 27 29  1  1  0
 28 30  1
 30 31  2
 30 32  1
 31 33  1
 32 34  1
 32 35  1
 10 12  1
 11 13  1
 22 25  1
 24 26  1
 33 34  2
M  END
> <COMPOUND_NAMES>
Example 383 (Stereo) (Page No: 560)

> <Reference>
WO2019148005

> <IC50_range_nM>
<100

> <smiles>
C[C@H](Cc1nncn1C)c1cccc(c1)N1Cc2c(cc(cc2C(F)(F)F)[C@H]2CCCNC2)C1=O

$$$$
C26H28F3N5O
  MOLSOFT 03092310482D

 35 39  0  0  1  0  0  0  0  0999 V2000
    0.0000   -0.0000    0.0000 F   0  0  0
    1.1039    1.0100    0.0000 C   0  0  0
    2.0904   -0.0940    0.0000 F   0  0  0
    2.2079    2.0200    0.0000 F   0  0  0
    0.0940    2.1374    0.0000 C   0  0  0
   -1.3858    1.8321    0.0000 C   0  0  0
    0.5402    3.5702    0.0000 C   0  0  0
   -2.3958    2.9595    0.0000 C   0  0  0
   -2.1492    0.5402    0.0000 C   0  0  0
   -0.4698    4.6976    0.0000 C   0  0  0
   -3.7816    2.3606    0.0000 C   0  0  0
   -1.9495    4.3923    0.0000 C   0  0  0
   -3.6289    0.8691    0.0000 N   0  0  0
   -0.0235    6.1304    0.0000 C   0  0  2
   -5.0969    3.1239    0.0000 O   0  0  0
   -4.7563   -0.1174    0.0000 C   0  0  0
    1.4328    6.4592    0.0000 C   0  0  0
   -1.0335    7.2578    0.0000 C   0  0  0
   -4.4510   -1.5737    0.0000 C   0  0  0
   -6.1891    0.3523    0.0000 C   0  0  0
    1.8791    7.8920    0.0000 N   0  0  0
   -0.5872    8.6906    0.0000 C   0  0  0
   -5.5784   -2.5602    0.0000 C   0  0  0
   -7.3166   -0.6342    0.0000 C   0  0  0
    0.8691    9.0194    0.0000 C   0  0  0
   -7.0112   -2.0904    0.0000 C   0  0  0
   -5.2731   -4.0165    0.0000 C   0  0  2
   -3.8638   -4.4627    0.0000 C   0  0  0
   -6.4005   -5.0030    0.0000 C   0  0  0
   -3.5585   -5.9190    0.0000 C   0  0  0
   -2.1961   -6.5180    0.0000 N   0  0  0
   -4.5684   -7.0230    0.0000 N   0  0  0
   -2.3606   -7.9977    0.0000 N   0  0  0
   -3.8286   -8.3031    0.0000 C   0  0  0
   -6.0717   -6.8585    0.0000 C   0  0  0
  1  2  1
  2  3  1
  2  4  1
  2  5  1
  5  6  2
  5  7  1
  6  8  1
  6  9  1
  7 10  2
  8 11  1
  8 12  2
  9 13  1
 14 10  1  1  0
 11 15  2
 13 16  1
 14 17  1
 14 18  1
 16 19  2
 16 20  1
 17 21  1
 18 22  1
 19 23  1
 20 24  2
 21 25  1
 23 26  2
 27 23  1
 27 28  1
 27 29  1  6  0
 28 30  1
 30 31  2
 30 32  1
 31 33  1
 32 34  1
 32 35  1
 10 12  1
 11 13  1
 22 25  1
 24 26  1
 33 34  2
M  END
> <COMPOUND_NAMES>
Example 382 (Stereo) (Page No: 560)

> <Reference>
WO2019148005

> <IC50_range_nM>
101-300

> <smiles>
C[C@@H](Cc1nncn1C)c1cccc(c1)N1Cc2c(cc(cc2C(F)(F)F)[C@H]2CCCNC2)C1=O

$$$$
C23H21F3N4O
  MOLSOFT 03092310482D

 31 35  0  0  1  0  0  0  0  0999 V2000
    0.0000   -0.0000    0.0000 F   0  0  0
    1.1038    1.0098    0.0000 C   0  0  0
    2.0901   -0.0939    0.0000 F   0  0  0
    2.2076    2.0197    0.0000 F   0  0  0
    0.0939    2.1371    0.0000 C   0  0  0
   -1.3856    1.8318    0.0000 C   0  0  0
    0.5401    3.5697    0.0000 C   0  0  0
   -2.3954    2.9591    0.0000 C   0  0  0
   -2.1488    0.5401    0.0000 C   0  0  0
   -0.4697    4.6969    0.0000 C   0  0  0
   -3.7810    2.3602    0.0000 C   0  0  0
   -1.9492    4.3916    0.0000 C   0  0  0
   -3.6284    0.8689    0.0000 N   0  0  0
   -5.0962    3.1235    0.0000 O   0  0  0
   -4.7556   -0.1174    0.0000 C   0  0  0
   -4.4503   -1.5735    0.0000 C   0  0  0
   -6.1882    0.3523    0.0000 C   0  0  0
   -5.5776   -2.5598    0.0000 C   0  0  0
   -7.3155   -0.6341    0.0000 C   0  0  0
   -7.0102   -2.0901    0.0000 C   0  0  0
   -5.2723   -4.0159    0.0000 C   0  0  1
   -3.8632   -4.4621    0.0000 C   0  0  0
   -6.3996   -5.0022    0.0000 C   0  0  0
   -3.5579   -5.9181    0.0000 C   0  0  0
   -2.1958   -6.5170    0.0000 N   0  0  0
   -4.5678   -7.0219    0.0000 N   0  0  0
   -2.3602   -7.9965    0.0000 N   0  0  0
   -3.8280   -8.3018    0.0000 C   0  0  0
   -6.0708   -6.8575    0.0000 C   0  0  0
   -7.4564   -7.4564    0.0000 C   0  0  0
   -7.2920   -5.9651    0.0000 C   0  0  0
  1  2  1
  2  3  1
  2  4  1
  2  5  1
  5  6  2
  5  7  1
  6  8  1
  6  9  1
  7 10  2
  8 11  1
  8 12  2
  9 13  1
 11 14  2
 13 15  1
 15 16  2
 15 17  1
 16 18  1
 17 19  2
 18 20  2
 21 18  1
 21 22  1
 21 23  1  1  0
 22 24  1
 24 25  2
 24 26  1
 25 27  1
 26 28  1
 26 29  1
 29 30  1
 29 31  1
 10 12  1
 11 13  1
 19 20  1
 27 28  2
 30 31  1
M  END
> <COMPOUND_NAMES>
Example 265 (R) (Page No: 476)

> <Reference>
WO2019148005

> <IC50_range_nM>
301-1000

> <smiles>
C[C@H](Cc1nncn1C1CC1)c1cccc(c1)N1Cc2c(cccc2C(F)(F)F)C1=O

$$$$
C22H16F3N5O
  MOLSOFT 03092310482D

 31 35  0  0  1  0  0  0  0  0999 V2000
    0.0000   -0.0000    0.0000 F   0  0  0
    1.0985    1.0158    0.0000 C   0  0  0
    2.0906   -0.0827    0.0000 F   0  0  0
    2.1969    2.0316    0.0000 F   0  0  0
    0.0827    2.1379    0.0000 C   0  0  0
   -1.3937    1.8426    0.0000 C   0  0  0
    0.5315    3.5788    0.0000 C   0  0  0
   -2.4095    2.9647    0.0000 C   0  0  0
   -2.1497    0.5551    0.0000 C   0  0  0
   -0.4843    4.7009    0.0000 C   0  0  0
   -3.7914    2.3623    0.0000 C   0  0  0
   -1.9607    4.4056    0.0000 C   0  0  0
   -3.6261    0.8740    0.0000 N   0  0  0
   -0.0354    6.1419    0.0000 C   0  0  0
   -5.1025    3.1182    0.0000 O   0  0  0
   -4.7482   -0.1181    0.0000 C   0  0  0
    0.4134    7.5829    0.0000 N   0  0  0
   -4.4529   -1.5709    0.0000 C   0  0  0
   -6.1892    0.3543    0.0000 C   0  0  0
   -5.5750   -2.5631    0.0000 C   0  0  0
   -7.3112   -0.6378    0.0000 C   0  0  0
   -7.0160   -2.0906    0.0000 C   0  0  0
   -5.2797   -4.0159    0.0000 C   0  0  2
   -4.2875   -5.1143    0.0000 C   0  0  1
   -5.7521   -5.4332    0.0000 C   0  0  0
   -2.8702   -5.5632    0.0000 C   0  0  0
   -2.4213   -6.9805    0.0000 N   0  0  0
   -1.6654   -4.6655    0.0000 N   0  0  0
   -0.9331   -6.9687    0.0000 N   0  0  0
   -0.4606   -5.5395    0.0000 C   0  0  0
   -1.6772   -3.1536    0.0000 C   0  0  0
  1  2  1
  2  3  1
  2  4  1
  2  5  1
  5  6  2
  5  7  1
  6  8  1
  6  9  1
  7 10  2
  8 11  1
  8 12  2
  9 13  1
 10 14  1
 11 15  2
 13 16  1
 14 17  3
 16 18  2
 16 19  1
 18 20  1
 19 21  2
 20 22  2
 23 20  1  6  0
 23 24  1
 23 25  1
 24 26  1  6  0
 26 27  2
 26 28  1
 27 29  1
 28 30  1
 28 31  1
 10 12  1
 11 13  1
 21 22  1
 24 25  1
 29 30  2
M  END
> <COMPOUND_NAMES>
Example 408 (Stereo) (Page No: 575)

> <Reference>
WO2019148005

> <IC50_range_nM>
101-300

> <smiles>
Cn1cnnc1[C@@H]1C[C@@H]1c1cccc(c1)N1Cc2c(cc(C#N)cc2C(F)(F)F)C1=O

$$$$
C21H18F4N4O
  MOLSOFT 03092310482D

 30 33  0  0  1  0  0  0  0  0999 V2000
    0.0000   -0.0000    0.0000 F   0  0  0
    1.1044    1.0104    0.0000 C   0  0  0
    2.0912   -0.0940    0.0000 F   0  0  0
    2.2087    2.0208    0.0000 F   0  0  0
    0.0940    2.1382    0.0000 C   0  0  0
   -1.3863    1.8328    0.0000 C   0  0  0
    0.5404    3.5716    0.0000 C   0  0  0
   -2.3967    2.9606    0.0000 C   0  0  0
   -2.1500    0.5404    0.0000 C   0  0  0
   -0.4699    4.6994    0.0000 C   0  0  0
   -3.7830    2.3615    0.0000 C   0  0  0
   -1.9503    4.3940    0.0000 C   0  0  0
   -3.6303    0.8694    0.0000 N   0  0  0
   -5.0989    3.1251    0.0000 O   0  0  0
   -4.7582   -0.1175    0.0000 C   0  0  0
   -4.4527   -1.5743    0.0000 C   0  0  0
   -6.1915    0.3525    0.0000 C   0  0  0
   -5.5806   -2.5612    0.0000 C   0  0  0
   -7.3194   -0.6344    0.0000 C   0  0  0
   -7.0139   -2.0912    0.0000 C   0  0  0
   -5.2751   -4.0180    0.0000 C   0  0  1
   -3.8653   -4.4645    0.0000 C   0  0  2
   -6.4030   -5.0049    0.0000 C   0  0  0
   -2.7609   -3.4541    0.0000 F   0  0  0
   -3.5598   -5.9213    0.0000 C   0  0  0
   -2.1970   -6.5205    0.0000 N   0  0  0
   -4.5702   -7.0256    0.0000 N   0  0  0
   -2.3615   -8.0008    0.0000 N   0  0  0
   -3.8300   -8.3062    0.0000 C   0  0  0
   -6.0740   -6.8612    0.0000 C   0  0  0
  1  2  1
  2  3  1
  2  4  1
  2  5  1
  5  6  2
  5  7  1
  6  8  1
  6  9  1
  7 10  2
  8 11  1
  8 12  2
  9 13  1
 11 14  2
 13 15  1
 15 16  2
 15 17  1
 16 18  1
 17 19  2
 18 20  2
 21 18  1
 21 22  1
 21 23  1  1  0
 22 24  1  6  0
 22 25  1
 25 26  2
 25 27  1
 26 28  1
 27 29  1
 27 30  1
 10 12  1
 11 13  1
 19 20  1
 28 29  2
M  END
> <COMPOUND_NAMES>
Example 293 (trans) (Page No: 500)

> <Reference>
WO2019148005

> <IC50_range_nM>
101-300

> <smiles>
C[C@@H](c1cccc(c1)N1Cc2c(cccc2C(F)(F)F)C1=O)[C@@H](c1nncn1C)F

$$$$
C21H18F4N4O
  MOLSOFT 03092310482D

 30 33  0  0  1  0  0  0  0  0999 V2000
    0.0000   -0.0000    0.0000 F   0  0  0
    1.1044    1.0104    0.0000 C   0  0  0
    2.0912   -0.0940    0.0000 F   0  0  0
    2.2087    2.0208    0.0000 F   0  0  0
    0.0940    2.1382    0.0000 C   0  0  0
   -1.3863    1.8328    0.0000 C   0  0  0
    0.5404    3.5716    0.0000 C   0  0  0
   -2.3967    2.9606    0.0000 C   0  0  0
   -2.1500    0.5404    0.0000 C   0  0  0
   -0.4699    4.6994    0.0000 C   0  0  0
   -3.7830    2.3615    0.0000 C   0  0  0
   -1.9503    4.3940    0.0000 C   0  0  0
   -3.6303    0.8694    0.0000 N   0  0  0
   -5.0989    3.1251    0.0000 O   0  0  0
   -4.7582   -0.1175    0.0000 C   0  0  0
   -4.4527   -1.5743    0.0000 C   0  0  0
   -6.1915    0.3525    0.0000 C   0  0  0
   -5.5806   -2.5612    0.0000 C   0  0  0
   -7.3194   -0.6344    0.0000 C   0  0  0
   -7.0139   -2.0912    0.0000 C   0  0  0
   -5.2751   -4.0180    0.0000 C   0  0  2
   -3.8653   -4.4645    0.0000 C   0  0  2
   -6.4030   -5.0049    0.0000 C   0  0  0
   -2.7609   -3.4541    0.0000 F   0  0  0
   -3.5598   -5.9213    0.0000 C   0  0  0
   -2.1970   -6.5205    0.0000 N   0  0  0
   -4.5702   -7.0256    0.0000 N   0  0  0
   -2.3615   -8.0008    0.0000 N   0  0  0
   -3.8300   -8.3062    0.0000 C   0  0  0
   -6.0740   -6.8612    0.0000 C   0  0  0
  1  2  1
  2  3  1
  2  4  1
  2  5  1
  5  6  2
  5  7  1
  6  8  1
  6  9  1
  7 10  2
  8 11  1
  8 12  2
  9 13  1
 11 14  2
 13 15  1
 15 16  2
 15 17  1
 16 18  1
 17 19  2
 18 20  2
 21 18  1
 21 22  1
 21 23  1  6  0
 22 24  1  6  0
 22 25  1
 25 26  2
 25 27  1
 26 28  1
 27 29  1
 27 30  1
 10 12  1
 11 13  1
 19 20  1
 28 29  2
M  END
> <COMPOUND_NAMES>
Example 474a (Stereo) (Page No: 621)

> <Reference>
WO2019148005

> <IC50_range_nM>
<100

> <smiles>
C[C@H](c1cccc(c1)N1Cc2c(cccc2C(F)(F)F)C1=O)[C@@H](c1nncn1C)F

$$$$
C21H18F4N4O
  MOLSOFT 03092310482D

 30 33  0  0  0  0  0  0  0  0999 V2000
    0.0000   -0.0000    0.0000 F   0  0  0
    1.1044    1.0104    0.0000 C   0  0  0
    2.0912   -0.0940    0.0000 F   0  0  0
    2.2087    2.0208    0.0000 F   0  0  0
    0.0940    2.1382    0.0000 C   0  0  0
   -1.3863    1.8328    0.0000 C   0  0  0
    0.5404    3.5716    0.0000 C   0  0  0
   -2.3967    2.9606    0.0000 C   0  0  0
   -2.1500    0.5404    0.0000 C   0  0  0
   -0.4699    4.6994    0.0000 C   0  0  0
   -3.7830    2.3615    0.0000 C   0  0  0
   -1.9503    4.3940    0.0000 C   0  0  0
   -3.6303    0.8694    0.0000 N   0  0  0
   -5.0989    3.1251    0.0000 O   0  0  0
   -4.7582   -0.1175    0.0000 C   0  0  0
   -4.4527   -1.5743    0.0000 C   0  0  0
   -6.1915    0.3525    0.0000 C   0  0  0
   -5.5806   -2.5612    0.0000 C   0  0  0
   -7.3194   -0.6344    0.0000 C   0  0  0
   -7.0139   -2.0912    0.0000 C   0  0  0
   -5.2751   -4.0180    0.0000 C   0  0  3
   -3.8653   -4.4645    0.0000 C   0  0  3
   -6.4030   -5.0049    0.0000 C   0  0  0
   -2.7609   -3.4541    0.0000 F   0  0  0
   -3.5598   -5.9213    0.0000 C   0  0  0
   -2.1970   -6.5205    0.0000 N   0  0  0
   -4.5702   -7.0256    0.0000 N   0  0  0
   -2.3615   -8.0008    0.0000 N   0  0  0
   -3.8300   -8.3062    0.0000 C   0  0  0
   -6.0740   -6.8612    0.0000 C   0  0  0
  1  2  1
  2  3  1
  2  4  1
  2  5  1
  5  6  2
  5  7  1
  6  8  1
  6  9  1
  7 10  2
  8 11  1
  8 12  2
  9 13  1
 11 14  2
 13 15  1
 15 16  2
 15 17  1
 16 18  1
 17 19  2
 18 20  2
 21 18  1
 21 22  1
 21 23  1
 22 24  1
 22 25  1
 25 26  2
 25 27  1
 26 28  1
 27 29  1
 27 30  1
 10 12  1
 11 13  1
 19 20  1
 28 29  2
M  END
> <COMPOUND_NAMES>
Example 473 (+/-) (Page No: 621)

> <Reference>
WO2019148005

> <IC50_range_nM>
301-1000

> <smiles>
CC(C(c1nncn1C)F)c1cccc(c1)N1Cc2c(cccc2C(F)(F)F)C1=O

$$$$
C21H17F5N4O
  MOLSOFT 03092310482D

 31 34  0  0  1  0  0  0  0  0999 V2000
    0.0000   -0.0000    0.0000 F   0  0  0
    0.3057    1.4813    0.0000 C   0  0  0
    1.7635    1.1874    0.0000 F   0  0  0
    0.5996    2.9626    0.0000 F   0  0  0
   -1.1757    1.8105    0.0000 C   0  0  0
   -2.1867    0.7054    0.0000 C   0  0  0
   -1.6459    3.2448    0.0000 C   0  0  0
   -3.6680    1.0228    0.0000 C   0  0  0
   -2.0456   -0.7759    0.0000 C   0  0  0
   -3.1272    3.5622    0.0000 C   0  0  0
   -4.4322   -0.2704    0.0000 C   0  0  0
   -4.1383    2.4571    0.0000 C   0  0  0
   -3.4329   -1.3755    0.0000 N   0  0  0
   -5.9370   -0.4115    0.0000 O   0  0  0
   -3.7503   -2.8333    0.0000 C   0  0  0
   -2.6452   -3.8209    0.0000 C   0  0  0
   -5.1846   -3.2801    0.0000 C   0  0  0
   -2.9626   -5.2787    0.0000 C   0  0  0
   -5.5138   -4.7379    0.0000 C   0  0  0
   -4.3969   -5.7254    0.0000 C   0  0  0
   -1.8575   -6.2662    0.0000 C   0  0  1
   -2.1867   -7.7240    0.0000 C   0  0  0
   -0.4467   -5.7960    0.0000 C   0  0  0
   -3.6680   -7.3948    0.0000 F   0  0  0
   -0.7289   -8.0179    0.0000 F   0  0  0
   -2.5041   -9.1818    0.0000 C   0  0  0
   -1.5166  -10.2869    0.0000 N   0  0  0
   -3.8914   -9.7814    0.0000 N   0  0  0
   -2.2808  -11.5802    0.0000 N   0  0  0
   -3.7503  -11.2627    0.0000 C   0  0  0
   -5.2081   -9.0172    0.0000 C   0  0  0
  1  2  1
  2  3  1
  2  4  1
  2  5  1
  5  6  2
  5  7  1
  6  8  1
  6  9  1
  7 10  2
  8 11  1
  8 12  2
  9 13  1
 11 14  2
 13 15  1
 15 16  2
 15 17  1
 16 18  1
 17 19  2
 18 20  2
 21 18  1
 21 22  1
 21 23  1  6  0
 22 24  1
 22 25  1
 22 26  1
 26 27  2
 26 28  1
 27 29  1
 28 30  1
 28 31  1
 10 12  1
 11 13  1
 19 20  1
 29 30  2
M  END
> <COMPOUND_NAMES>
Example 467a (S) (Page No: 610)

> <Reference>
WO2019148005

> <IC50_range_nM>
101-300

> <smiles>
C[C@@H](c1cccc(c1)N1Cc2c(cccc2C(F)(F)F)C1=O)C(c1nncn1C)(F)F

$$$$
C21H17F5N4O
  MOLSOFT 03092310482D

 31 34  0  0  0  0  0  0  0  0999 V2000
    0.0000   -0.0000    0.0000 F   0  0  0
    0.3057    1.4813    0.0000 C   0  0  0
    1.7635    1.1874    0.0000 F   0  0  0
    0.5996    2.9626    0.0000 F   0  0  0
   -1.1757    1.8105    0.0000 C   0  0  0
   -2.1867    0.7054    0.0000 C   0  0  0
   -1.6459    3.2448    0.0000 C   0  0  0
   -3.6680    1.0228    0.0000 C   0  0  0
   -2.0456   -0.7759    0.0000 C   0  0  0
   -3.1272    3.5622    0.0000 C   0  0  0
   -4.4322   -0.2704    0.0000 C   0  0  0
   -4.1383    2.4571    0.0000 C   0  0  0
   -3.4329   -1.3755    0.0000 N   0  0  0
   -5.9370   -0.4115    0.0000 O   0  0  0
   -3.7503   -2.8333    0.0000 C   0  0  0
   -2.6452   -3.8209    0.0000 C   0  0  0
   -5.1846   -3.2801    0.0000 C   0  0  0
   -2.9626   -5.2787    0.0000 C   0  0  0
   -5.5138   -4.7379    0.0000 C   0  0  0
   -4.3969   -5.7254    0.0000 C   0  0  0
   -1.8575   -6.2662    0.0000 C   0  0  3
   -2.1867   -7.7240    0.0000 C   0  0  0
   -3.6680   -7.3948    0.0000 F   0  0  0
   -0.7289   -8.0179    0.0000 F   0  0  0
   -2.5041   -9.1818    0.0000 C   0  0  0
   -1.5166  -10.2869    0.0000 N   0  0  0
   -3.8914   -9.7814    0.0000 N   0  0  0
   -2.2808  -11.5802    0.0000 N   0  0  0
   -3.7503  -11.2627    0.0000 C   0  0  0
   -5.2081   -9.0172    0.0000 C   0  0  0
   -0.5052   -5.9039    0.0000 C   0  0  0
  1  2  1
  2  3  1
  2  4  1
  2  5  1
  5  6  2
  5  7  1
  6  8  1
  6  9  1
  7 10  2
  8 11  1
  8 12  2
  9 13  1
 11 14  2
 13 15  1
 15 16  2
 15 17  1
 16 18  1
 17 19  2
 18 20  2
 21 18  1
 21 22  1
 22 23  1
 22 24  1
 22 25  1
 25 26  2
 25 27  1
 26 28  1
 27 29  1
 27 30  1
 10 12  1
 11 13  1
 19 20  1
 28 29  2
 21 31  1
M  END
> <COMPOUND_NAMES>
Example 294 (+/-) (Page No: 501)

> <Reference>
WO2019148005

> <IC50_range_nM>
301-1000

> <smiles>
CC(c1cccc(c1)N1Cc2c(cccc2C(F)(F)F)C1=O)C(c1nncn1C)(F)F

$$$$
C21H17F5N4O
  MOLSOFT 03092310482D

 31 34  0  0  1  0  0  0  0  0999 V2000
    0.0000   -0.0000    0.0000 F   0  0  0
    1.0987    1.0160    0.0000 C   0  0  0
    2.0911   -0.0827    0.0000 F   0  0  0
    2.1974    2.0320    0.0000 F   0  0  0
    0.0827    2.1384    0.0000 C   0  0  0
   -1.3941    1.8430    0.0000 C   0  0  0
    0.5316    3.5797    0.0000 C   0  0  0
   -2.4101    2.9654    0.0000 C   0  0  0
   -2.1502    0.5553    0.0000 C   0  0  0
   -0.4844    4.7021    0.0000 C   0  0  0
   -3.7924    2.3628    0.0000 C   0  0  0
   -1.9612    4.4067    0.0000 C   0  0  0
   -3.6270    0.8743    0.0000 N   0  0  0
   -5.1038    3.1308    0.0000 O   0  0  0
   -4.7493   -0.1181    0.0000 C   0  0  0
   -4.4540   -1.5713    0.0000 C   0  0  0
   -6.1907    0.3544    0.0000 C   0  0  0
   -5.5763   -2.5637    0.0000 C   0  0  0
   -7.3130   -0.6380    0.0000 C   0  0  0
   -7.0177   -2.0911    0.0000 C   0  0  0
   -5.2810   -4.0168    0.0000 C   0  0  1
   -6.7577   -4.3122    0.0000 F   0  0  0
   -4.9856   -5.4700    0.0000 C   0  0  2
   -3.8278   -3.6979    0.0000 C   0  0  0
   -6.1080   -6.4624    0.0000 F   0  0  0
   -3.5679   -5.9189    0.0000 C   0  0  0
   -3.1190   -7.3366    0.0000 N   0  0  0
   -2.3628   -5.0211    0.0000 N   0  0  0
   -1.6304   -7.3248    0.0000 N   0  0  0
   -1.1578   -5.8953    0.0000 C   0  0  0
   -2.3747   -3.5088    0.0000 C   0  0  0
  1  2  1
  2  3  1
  2  4  1
  2  5  1
  5  6  2
  5  7  1
  6  8  1
  6  9  1
  7 10  2
  8 11  1
  8 12  2
  9 13  1
 11 14  2
 13 15  1
 15 16  2
 15 17  1
 16 18  1
 17 19  2
 18 20  2
 21 18  1  6  0
 21 22  1
 21 23  1
 21 24  1
 23 25  1  1  0
 23 26  1
 26 27  2
 26 28  1
 27 29  1
 28 30  1
 28 31  1
 10 12  1
 11 13  1
 19 20  1
 29 30  2
M  END
> <COMPOUND_NAMES>
Example 479 (Stereo) (Page No: 628)

> <Reference>
WO2019148005

> <IC50_range_nM>
<100

> <smiles>
C[C@@](c1cccc(c1)N1Cc2c(cccc2C(F)(F)F)C1=O)([C@@H](c1nncn1C)F)F

$$$$
C21H17F5N4O
  MOLSOFT 03092310482D

 31 34  0  0  1  0  0  0  0  0999 V2000
    0.0000   -0.0000    0.0000 F   0  0  0
    1.0987    1.0160    0.0000 C   0  0  0
    2.0911   -0.0827    0.0000 F   0  0  0
    2.1974    2.0320    0.0000 F   0  0  0
    0.0827    2.1384    0.0000 C   0  0  0
   -1.3941    1.8430    0.0000 C   0  0  0
    0.5316    3.5797    0.0000 C   0  0  0
   -2.4101    2.9654    0.0000 C   0  0  0
   -2.1502    0.5553    0.0000 C   0  0  0
   -0.4844    4.7021    0.0000 C   0  0  0
   -3.7924    2.3628    0.0000 C   0  0  0
   -1.9612    4.4067    0.0000 C   0  0  0
   -3.6270    0.8743    0.0000 N   0  0  0
   -5.1038    3.1308    0.0000 O   0  0  0
   -4.7493   -0.1181    0.0000 C   0  0  0
   -4.4540   -1.5713    0.0000 C   0  0  0
   -6.1907    0.3544    0.0000 C   0  0  0
   -5.5763   -2.5637    0.0000 C   0  0  0
   -7.3130   -0.6380    0.0000 C   0  0  0
   -7.0177   -2.0911    0.0000 C   0  0  0
   -5.2810   -4.0168    0.0000 C   0  0  1
   -6.7577   -4.3122    0.0000 F   0  0  0
   -4.9856   -5.4700    0.0000 C   0  0  2
   -3.8278   -3.6979    0.0000 C   0  0  0
   -6.1080   -6.4624    0.0000 F   0  0  0
   -3.5679   -5.9189    0.0000 C   0  0  0
   -3.1190   -7.3366    0.0000 N   0  0  0
   -2.3628   -5.0211    0.0000 N   0  0  0
   -1.6304   -7.3248    0.0000 N   0  0  0
   -1.1578   -5.8953    0.0000 C   0  0  0
   -2.3747   -3.5088    0.0000 C   0  0  0
  1  2  1
  2  3  1
  2  4  1
  2  5  1
  5  6  2
  5  7  1
  6  8  1
  6  9  1
  7 10  2
  8 11  1
  8 12  2
  9 13  1
 11 14  2
 13 15  1
 15 16  2
 15 17  1
 16 18  1
 17 19  2
 18 20  2
 21 18  1  6  0
 21 22  1
 21 23  1
 21 24  1
 23 25  1  1  0
 23 26  1
 26 27  2
 26 28  1
 27 29  1
 28 30  1
 28 31  1
 10 12  1
 11 13  1
 19 20  1
 29 30  2
M  END
> <COMPOUND_NAMES>
Example 480 (Stereo) (Page No: 628)

> <Reference>
WO2019148005

> <IC50_range_nM>
101-300

> <smiles>
C[C@@](c1cccc(c1)N1Cc2c(cccc2C(F)(F)F)C1=O)([C@@H](c1nncn1C)F)F

$$$$
C21H17F5N4O
  MOLSOFT 03092310482D

 31 34  0  0  1  0  0  0  0  0999 V2000
    0.0000   -0.0000    0.0000 F   0  0  0
    1.0987    1.0160    0.0000 C   0  0  0
    2.0911   -0.0827    0.0000 F   0  0  0
    2.1974    2.0320    0.0000 F   0  0  0
    0.0827    2.1384    0.0000 C   0  0  0
   -1.3941    1.8430    0.0000 C   0  0  0
    0.5316    3.5797    0.0000 C   0  0  0
   -2.4101    2.9654    0.0000 C   0  0  0
   -2.1502    0.5553    0.0000 C   0  0  0
   -0.4844    4.7021    0.0000 C   0  0  0
   -3.7924    2.3628    0.0000 C   0  0  0
   -1.9612    4.4067    0.0000 C   0  0  0
   -3.6270    0.8743    0.0000 N   0  0  0
   -5.1038    3.1308    0.0000 O   0  0  0
   -4.7493   -0.1181    0.0000 C   0  0  0
   -4.4540   -1.5713    0.0000 C   0  0  0
   -6.1907    0.3544    0.0000 C   0  0  0
   -5.5763   -2.5637    0.0000 C   0  0  0
   -7.3130   -0.6380    0.0000 C   0  0  0
   -7.0177   -2.0911    0.0000 C   0  0  0
   -5.2810   -4.0168    0.0000 C   0  0  1
   -6.7577   -4.3122    0.0000 F   0  0  0
   -4.9856   -5.4700    0.0000 C   0  0  1
   -3.8278   -3.6979    0.0000 C   0  0  0
   -6.1080   -6.4624    0.0000 F   0  0  0
   -3.5679   -5.9189    0.0000 C   0  0  0
   -3.1190   -7.3366    0.0000 N   0  0  0
   -2.3628   -5.0211    0.0000 N   0  0  0
   -1.6304   -7.3248    0.0000 N   0  0  0
   -1.1578   -5.8953    0.0000 C   0  0  0
   -2.3747   -3.5088    0.0000 C   0  0  0
  1  2  1
  2  3  1
  2  4  1
  2  5  1
  5  6  2
  5  7  1
  6  8  1
  6  9  1
  7 10  2
  8 11  1
  8 12  2
  9 13  1
 11 14  2
 13 15  1
 15 16  2
 15 17  1
 16 18  1
 17 19  2
 18 20  2
 21 18  1  6  0
 21 22  1
 21 23  1
 21 24  1
 23 25  1  6  0
 23 26  1
 26 27  2
 26 28  1
 27 29  1
 28 30  1
 28 31  1
 10 12  1
 11 13  1
 19 20  1
 29 30  2
M  END
> <COMPOUND_NAMES>
Example 478a (Stereo) (Page No: 628)

> <Reference>
WO2019148005

> <IC50_range_nM>
301-1000

> <smiles>
C[C@@](c1cccc(c1)N1Cc2c(cccc2C(F)(F)F)C1=O)([C@H](c1nncn1C)F)F

$$$$
C21H17F5N4O
  MOLSOFT 03092310482D

 31 34  0  0  1  0  0  0  0  0999 V2000
    0.0000   -0.0000    0.0000 F   0  0  0
    1.0987    1.0160    0.0000 C   0  0  0
    2.0911   -0.0827    0.0000 F   0  0  0
    2.1974    2.0320    0.0000 F   0  0  0
    0.0827    2.1384    0.0000 C   0  0  0
   -1.3941    1.8430    0.0000 C   0  0  0
    0.5316    3.5797    0.0000 C   0  0  0
   -2.4101    2.9654    0.0000 C   0  0  0
   -2.1502    0.5553    0.0000 C   0  0  0
   -0.4844    4.7021    0.0000 C   0  0  0
   -3.7924    2.3628    0.0000 C   0  0  0
   -1.9612    4.4067    0.0000 C   0  0  0
   -3.6270    0.8743    0.0000 N   0  0  0
   -5.1038    3.1308    0.0000 O   0  0  0
   -4.7493   -0.1181    0.0000 C   0  0  0
   -4.4540   -1.5713    0.0000 C   0  0  0
   -6.1907    0.3544    0.0000 C   0  0  0
   -5.5763   -2.5637    0.0000 C   0  0  0
   -7.3130   -0.6380    0.0000 C   0  0  0
   -7.0177   -2.0911    0.0000 C   0  0  0
   -5.2810   -4.0168    0.0000 C   0  0  1
   -6.7577   -4.3122    0.0000 F   0  0  0
   -4.9856   -5.4700    0.0000 C   0  0  1
   -3.8278   -3.6979    0.0000 C   0  0  0
   -6.1080   -6.4624    0.0000 F   0  0  0
   -3.5679   -5.9189    0.0000 C   0  0  0
   -3.1190   -7.3366    0.0000 N   0  0  0
   -2.3628   -5.0211    0.0000 N   0  0  0
   -1.6304   -7.3248    0.0000 N   0  0  0
   -1.1578   -5.8953    0.0000 C   0  0  0
   -2.3747   -3.5088    0.0000 C   0  0  0
  1  2  1
  2  3  1
  2  4  1
  2  5  1
  5  6  2
  5  7  1
  6  8  1
  6  9  1
  7 10  2
  8 11  1
  8 12  2
  9 13  1
 11 14  2
 13 15  1
 15 16  2
 15 17  1
 16 18  1
 17 19  2
 18 20  2
 21 18  1  6  0
 21 22  1
 21 23  1
 21 24  1
 23 25  1  6  0
 23 26  1
 26 27  2
 26 28  1
 27 29  1
 28 30  1
 28 31  1
 10 12  1
 11 13  1
 19 20  1
 29 30  2
M  END
> <COMPOUND_NAMES>
Example 478b (Stereo) (Page No: 628)

> <Reference>
WO2019148005

> <IC50_range_nM>
1001-3000

> <smiles>
C[C@@](c1cccc(c1)N1Cc2c(cccc2C(F)(F)F)C1=O)([C@H](c1nncn1C)F)F

$$$$
C21H16F6N4O
  MOLSOFT 03092310482D

 32 35  0  0  1  0  0  0  0  0999 V2000
    0.0000   -0.0000    0.0000 F   0  0  0
    1.1023    1.0085    0.0000 C   0  0  0
    2.0991   -0.0938    0.0000 F   0  0  0
    2.2046    2.0287    0.0000 F   0  0  0
    0.0821    2.1343    0.0000 C   0  0  0
   -1.3955    1.8294    0.0000 C   0  0  0
    0.5277    3.5649    0.0000 C   0  0  0
   -2.4157    2.9551    0.0000 C   0  0  0
   -2.1577    0.5394    0.0000 C   0  0  0
   -0.4925    4.6907    0.0000 C   0  0  0
   -3.7994    2.3571    0.0000 C   0  0  0
   -1.9701    4.3858    0.0000 C   0  0  0
   -3.6353    0.8678    0.0000 N   0  0  0
   -5.1128    3.1193    0.0000 O   0  0  0
   -4.7610   -0.1290    0.0000 C   0  0  0
   -4.4561   -1.5831    0.0000 C   0  0  0
   -6.1917    0.3401    0.0000 C   0  0  0
   -5.5819   -2.5681    0.0000 C   0  0  0
   -7.3174   -0.6567    0.0000 C   0  0  0
   -7.0243   -2.0991    0.0000 C   0  0  0
   -5.2770   -4.0222    0.0000 C   0  0  1
   -6.7546   -4.3271    0.0000 F   0  0  0
   -4.9721   -5.4764    0.0000 C   0  0  0
   -3.8229   -3.6939    0.0000 C   0  0  0
   -3.5180   -5.1480    0.0000 F   0  0  0
   -6.4497   -5.7812    0.0000 F   0  0  0
   -4.6672   -6.9305    0.0000 C   0  0  0
   -5.6874   -8.0328    0.0000 N   0  0  0
   -3.3069   -7.5285    0.0000 N   0  0  0
   -4.9487   -9.3227    0.0000 N   0  0  0
   -3.4711   -9.0061    0.0000 C   0  0  0
   -2.0170   -6.7663    0.0000 C   0  0  0
  1  2  1
  2  3  1
  2  4  1
  2  5  1
  5  6  2
  5  7  1
  6  8  1
  6  9  1
  7 10  2
  8 11  1
  8 12  2
  9 13  1
 11 14  2
 13 15  1
 15 16  2
 15 17  1
 16 18  1
 17 19  2
 18 20  2
 21 18  1  6  0
 21 22  1
 21 23  1
 21 24  1
 23 25  1
 23 26  1
 23 27  1
 27 28  2
 27 29  1
 28 30  1
 29 31  1
 29 32  1
 10 12  1
 11 13  1
 19 20  1
 30 31  2
M  END
> <COMPOUND_NAMES>
Example 296a (R) (Page No: 503)

> <Reference>
WO2019148005

> <IC50_range_nM>
101-300

> <smiles>
C[C@@](c1cccc(c1)N1Cc2c(cccc2C(F)(F)F)C1=O)(C(c1nncn1C)(F)F)F

$$$$
C21H16F6N4O
  MOLSOFT 03092310482D

 32 35  0  0  0  0  0  0  0  0999 V2000
    0.0000   -0.0000    0.0000 F   0  0  0
    1.1023    1.0085    0.0000 C   0  0  0
    2.0991   -0.0938    0.0000 F   0  0  0
    2.2046    2.0287    0.0000 F   0  0  0
    0.0821    2.1343    0.0000 C   0  0  0
   -1.3955    1.8294    0.0000 C   0  0  0
    0.5277    3.5649    0.0000 C   0  0  0
   -2.4157    2.9551    0.0000 C   0  0  0
   -2.1577    0.5394    0.0000 C   0  0  0
   -0.4925    4.6907    0.0000 C   0  0  0
   -3.7994    2.3571    0.0000 C   0  0  0
   -1.9701    4.3858    0.0000 C   0  0  0
   -3.6353    0.8678    0.0000 N   0  0  0
   -5.1128    3.1193    0.0000 O   0  0  0
   -4.7610   -0.1290    0.0000 C   0  0  0
   -4.4561   -1.5831    0.0000 C   0  0  0
   -6.1917    0.3401    0.0000 C   0  0  0
   -5.5819   -2.5681    0.0000 C   0  0  0
   -7.3174   -0.6567    0.0000 C   0  0  0
   -7.0243   -2.0991    0.0000 C   0  0  0
   -5.2770   -4.0222    0.0000 C   0  0  3
   -6.7546   -4.3271    0.0000 F   0  0  0
   -4.9721   -5.4764    0.0000 C   0  0  0
   -3.8229   -3.6939    0.0000 C   0  0  0
   -3.5180   -5.1480    0.0000 F   0  0  0
   -6.4497   -5.7812    0.0000 F   0  0  0
   -4.6672   -6.9305    0.0000 C   0  0  0
   -5.6874   -8.0328    0.0000 N   0  0  0
   -3.3069   -7.5285    0.0000 N   0  0  0
   -4.9487   -9.3227    0.0000 N   0  0  0
   -3.4711   -9.0061    0.0000 C   0  0  0
   -2.0170   -6.7663    0.0000 C   0  0  0
  1  2  1
  2  3  1
  2  4  1
  2  5  1
  5  6  2
  5  7  1
  6  8  1
  6  9  1
  7 10  2
  8 11  1
  8 12  2
  9 13  1
 11 14  2
 13 15  1
 15 16  2
 15 17  1
 16 18  1
 17 19  2
 18 20  2
 21 22  1
 21 23  1
 21 24  1
 23 25  1
 23 26  1
 23 27  1
 27 28  2
 27 29  1
 28 30  1
 29 31  1
 29 32  1
 10 12  1
 11 13  1
 19 20  1
 30 31  2
 21 18  1
M  END
> <COMPOUND_NAMES>
Example 296 (+/-) (Page No: 503)

> <Reference>
WO2019148005

> <IC50_range_nM>
301-1000

> <smiles>
CC(c1cccc(c1)N1Cc2c(cccc2C(F)(F)F)C1=O)(C(c1nncn1C)(F)F)F

$$$$
C21H16F6N4O
  MOLSOFT 03092310482D

 32 35  0  0  1  0  0  0  0  0999 V2000
    0.0000   -0.0000    0.0000 F   0  0  0
    1.1023    1.0085    0.0000 C   0  0  0
    2.0991   -0.0938    0.0000 F   0  0  0
    2.2046    2.0287    0.0000 F   0  0  0
    0.0821    2.1343    0.0000 C   0  0  0
   -1.3955    1.8294    0.0000 C   0  0  0
    0.5277    3.5649    0.0000 C   0  0  0
   -2.4157    2.9551    0.0000 C   0  0  0
   -2.1577    0.5394    0.0000 C   0  0  0
   -0.4925    4.6907    0.0000 C   0  0  0
   -3.7994    2.3571    0.0000 C   0  0  0
   -1.9701    4.3858    0.0000 C   0  0  0
   -3.6353    0.8678    0.0000 N   0  0  0
   -5.1128    3.1193    0.0000 O   0  0  0
   -4.7610   -0.1290    0.0000 C   0  0  0
   -4.4561   -1.5831    0.0000 C   0  0  0
   -6.1917    0.3401    0.0000 C   0  0  0
   -5.5819   -2.5681    0.0000 C   0  0  0
   -7.3174   -0.6567    0.0000 C   0  0  0
   -7.0243   -2.0991    0.0000 C   0  0  0
   -5.2770   -4.0222    0.0000 C   0  0  2
   -6.7546   -4.3271    0.0000 F   0  0  0
   -4.9721   -5.4764    0.0000 C   0  0  0
   -3.8229   -3.6939    0.0000 C   0  0  0
   -3.5180   -5.1480    0.0000 F   0  0  0
   -6.4497   -5.7812    0.0000 F   0  0  0
   -4.6672   -6.9305    0.0000 C   0  0  0
   -5.6874   -8.0328    0.0000 N   0  0  0
   -3.3069   -7.5285    0.0000 N   0  0  0
   -4.9487   -9.3227    0.0000 N   0  0  0
   -3.4711   -9.0061    0.0000 C   0  0  0
   -2.0170   -6.7663    0.0000 C   0  0  0
  1  2  1
  2  3  1
  2  4  1
  2  5  1
  5  6  2
  5  7  1
  6  8  1
  6  9  1
  7 10  2
  8 11  1
  8 12  2
  9 13  1
 11 14  2
 13 15  1
 15 16  2
 15 17  1
 16 18  1
 17 19  2
 18 20  2
 21 18  1  1  0
 21 22  1
 21 23  1
 21 24  1
 23 25  1
 23 26  1
 23 27  1
 27 28  2
 27 29  1
 28 30  1
 29 31  1
 29 32  1
 10 12  1
 11 13  1
 19 20  1
 30 31  2
M  END
> <COMPOUND_NAMES>
Example 296b (S) (Page No: 503)

> <Reference>
WO2019148005

> <IC50_range_nM>
3001-10000

> <smiles>
C[C@](c1cccc(c1)N1Cc2c(cccc2C(F)(F)F)C1=O)(C(c1nncn1C)(F)F)F

$$$$
C24H21F5N4O
  MOLSOFT 03092310482D

 34 38  0  0  1  0  0  0  0  0999 V2000
    0.0000   -0.0000    0.0000 F   0  0  0
    1.0986    1.0159    0.0000 C   0  0  0
    2.0908   -0.0827    0.0000 F   0  0  0
    2.1972    2.0318    0.0000 F   0  0  0
    0.0827    2.1381    0.0000 C   0  0  0
   -1.3939    1.8428    0.0000 C   0  0  0
    0.5316    3.5792    0.0000 C   0  0  0
   -2.4098    2.9650    0.0000 C   0  0  0
   -2.1499    0.5552    0.0000 C   0  0  0
   -0.4843    4.7014    0.0000 C   0  0  0
   -3.7919    2.3625    0.0000 C   0  0  0
   -1.9609    4.4061    0.0000 C   0  0  0
   -3.6265    0.8741    0.0000 N   0  0  0
   -0.0354    6.1426    0.0000 C   0  0  0
   -5.1031    3.1304    0.0000 O   0  0  0
   -4.7487   -0.1181    0.0000 C   0  0  0
   -0.3544    7.6192    0.0000 C   0  0  0
    1.0631    7.1585    0.0000 C   0  0  0
   -4.4534   -1.5711    0.0000 C   0  0  0
   -6.1898    0.3544    0.0000 C   0  0  0
   -5.5756   -2.5633    0.0000 C   0  0  0
   -7.3120   -0.6379    0.0000 C   0  0  0
   -7.0167   -2.0908    0.0000 C   0  0  0
   -5.2803   -4.0163    0.0000 C   0  0  1
   -6.7568   -4.3116    0.0000 F   0  0  0
   -4.9849   -5.4693    0.0000 C   0  0  1
   -3.8273   -3.6974    0.0000 C   0  0  0
   -6.1071   -6.4615    0.0000 F   0  0  0
   -3.5674   -5.9181    0.0000 C   0  0  0
   -3.1185   -7.3357    0.0000 N   0  0  0
   -2.3625   -5.0204    0.0000 N   0  0  0
   -1.6301   -7.3238    0.0000 N   0  0  0
   -1.1576   -5.8945    0.0000 C   0  0  0
   -2.3743   -3.5084    0.0000 C   0  0  0
  1  2  1
  2  3  1
  2  4  1
  2  5  1
  5  6  2
  5  7  1
  6  8  1
  6  9  1
  7 10  2
  8 11  1
  8 12  2
  9 13  1
 10 14  1
 11 15  2
 13 16  1
 14 17  1
 14 18  1
 16 19  2
 16 20  1
 19 21  1
 20 22  2
 21 23  2
 24 21  1  6  0
 24 25  1
 24 26  1
 24 27  1
 26 28  1  6  0
 26 29  1
 29 30  2
 29 31  1
 30 32  1
 31 33  1
 31 34  1
 10 12  1
 11 13  1
 17 18  1
 22 23  1
 32 33  2
M  END
> <COMPOUND_NAMES>
Example 481a (Stereo) (Page No: 632)

> <Reference>
WO2019148005

> <IC50_range_nM>
101-300

> <smiles>
C[C@@](c1cccc(c1)N1Cc2c(cc(cc2C(F)(F)F)C2CC2)C1=O)([C@H](c1nncn1C)F)F

$$$$
C24H21F5N4O
  MOLSOFT 03092310482D

 34 38  0  0  1  0  0  0  0  0999 V2000
    0.0000   -0.0000    0.0000 F   0  0  0
    1.0986    1.0159    0.0000 C   0  0  0
    2.0908   -0.0827    0.0000 F   0  0  0
    2.1972    2.0318    0.0000 F   0  0  0
    0.0827    2.1381    0.0000 C   0  0  0
   -1.3939    1.8428    0.0000 C   0  0  0
    0.5316    3.5792    0.0000 C   0  0  0
   -2.4098    2.9650    0.0000 C   0  0  0
   -2.1499    0.5552    0.0000 C   0  0  0
   -0.4843    4.7014    0.0000 C   0  0  0
   -3.7919    2.3625    0.0000 C   0  0  0
   -1.9609    4.4061    0.0000 C   0  0  0
   -3.6265    0.8741    0.0000 N   0  0  0
   -0.0354    6.1426    0.0000 C   0  0  0
   -5.1031    3.1304    0.0000 O   0  0  0
   -4.7487   -0.1181    0.0000 C   0  0  0
   -0.3544    7.6192    0.0000 C   0  0  0
    1.0631    7.1585    0.0000 C   0  0  0
   -4.4534   -1.5711    0.0000 C   0  0  0
   -6.1898    0.3544    0.0000 C   0  0  0
   -5.5756   -2.5633    0.0000 C   0  0  0
   -7.3120   -0.6379    0.0000 C   0  0  0
   -7.0167   -2.0908    0.0000 C   0  0  0
   -5.2803   -4.0163    0.0000 C   0  0  1
   -6.7568   -4.3116    0.0000 F   0  0  0
   -4.9849   -5.4693    0.0000 C   0  0  1
   -3.8273   -3.6974    0.0000 C   0  0  0
   -6.1071   -6.4615    0.0000 F   0  0  0
   -3.5674   -5.9181    0.0000 C   0  0  0
   -3.1185   -7.3357    0.0000 N   0  0  0
   -2.3625   -5.0204    0.0000 N   0  0  0
   -1.6301   -7.3238    0.0000 N   0  0  0
   -1.1576   -5.8945    0.0000 C   0  0  0
   -2.3743   -3.5084    0.0000 C   0  0  0
  1  2  1
  2  3  1
  2  4  1
  2  5  1
  5  6  2
  5  7  1
  6  8  1
  6  9  1
  7 10  2
  8 11  1
  8 12  2
  9 13  1
 10 14  1
 11 15  2
 13 16  1
 14 17  1
 14 18  1
 16 19  2
 16 20  1
 19 21  1
 20 22  2
 21 23  2
 24 21  1  6  0
 24 25  1
 24 26  1
 24 27  1
 26 28  1  6  0
 26 29  1
 29 30  2
 29 31  1
 30 32  1
 31 33  1
 31 34  1
 10 12  1
 11 13  1
 17 18  1
 22 23  1
 32 33  2
M  END
> <COMPOUND_NAMES>
Example 481b (Stereo) (Page No: 632)

> <Reference>
WO2019148005

> <IC50_range_nM>
1001-3000

> <smiles>
C[C@@](c1cccc(c1)N1Cc2c(cc(cc2C(F)(F)F)C2CC2)C1=O)([C@H](c1nncn1C)F)F

$$$$
C24H21F5N4O
  MOLSOFT 03092310482D

 34 38  0  0  1  0  0  0  0  0999 V2000
    0.0000   -0.0000    0.0000 F   0  0  0
    1.0986    1.0159    0.0000 C   0  0  0
    2.0908   -0.0827    0.0000 F   0  0  0
    2.1972    2.0318    0.0000 F   0  0  0
    0.0827    2.1381    0.0000 C   0  0  0
   -1.3939    1.8428    0.0000 C   0  0  0
    0.5316    3.5792    0.0000 C   0  0  0
   -2.4098    2.9650    0.0000 C   0  0  0
   -2.1499    0.5552    0.0000 C   0  0  0
   -0.4843    4.7014    0.0000 C   0  0  0
   -3.7919    2.3625    0.0000 C   0  0  0
   -1.9609    4.4061    0.0000 C   0  0  0
   -3.6265    0.8741    0.0000 N   0  0  0
   -0.0354    6.1426    0.0000 C   0  0  0
   -5.1031    3.1304    0.0000 O   0  0  0
   -4.7487   -0.1181    0.0000 C   0  0  0
   -0.3544    7.6192    0.0000 C   0  0  0
    1.0631    7.1585    0.0000 C   0  0  0
   -4.4534   -1.5711    0.0000 C   0  0  0
   -6.1898    0.3544    0.0000 C   0  0  0
   -5.5756   -2.5633    0.0000 C   0  0  0
   -7.3120   -0.6379    0.0000 C   0  0  0
   -7.0167   -2.0908    0.0000 C   0  0  0
   -5.2803   -4.0163    0.0000 C   0  0  1
   -6.7568   -4.3116    0.0000 F   0  0  0
   -4.9849   -5.4693    0.0000 C   0  0  2
   -3.8273   -3.6974    0.0000 C   0  0  0
   -6.1071   -6.4615    0.0000 F   0  0  0
   -3.5674   -5.9181    0.0000 C   0  0  0
   -3.1185   -7.3357    0.0000 N   0  0  0
   -2.3625   -5.0204    0.0000 N   0  0  0
   -1.6301   -7.3238    0.0000 N   0  0  0
   -1.1576   -5.8945    0.0000 C   0  0  0
   -2.3743   -3.5084    0.0000 C   0  0  0
  1  2  1
  2  3  1
  2  4  1
  2  5  1
  5  6  2
  5  7  1
  6  8  1
  6  9  1
  7 10  2
  8 11  1
  8 12  2
  9 13  1
 10 14  1
 11 15  2
 13 16  1
 14 17  1
 14 18  1
 16 19  2
 16 20  1
 19 21  1
 20 22  2
 21 23  2
 24 21  1  6  0
 24 25  1
 24 26  1
 24 27  1
 26 28  1  1  0
 26 29  1
 29 30  2
 29 31  1
 30 32  1
 31 33  1
 31 34  1
 10 12  1
 11 13  1
 17 18  1
 22 23  1
 32 33  2
M  END
> <COMPOUND_NAMES>
Example 483 (Stereo) (Page No: 632)

> <Reference>
WO2019148005

> <IC50_range_nM>
101-300

> <smiles>
C[C@@](c1cccc(c1)N1Cc2c(cc(cc2C(F)(F)F)C2CC2)C1=O)([C@@H](c1nncn1C)F)F

$$$$
C24H21F5N4O
  MOLSOFT 03092310482D

 34 38  0  0  1  0  0  0  0  0999 V2000
    0.0000   -0.0000    0.0000 F   0  0  0
    1.0986    1.0159    0.0000 C   0  0  0
    2.0908   -0.0827    0.0000 F   0  0  0
    2.1972    2.0318    0.0000 F   0  0  0
    0.0827    2.1381    0.0000 C   0  0  0
   -1.3939    1.8428    0.0000 C   0  0  0
    0.5316    3.5792    0.0000 C   0  0  0
   -2.4098    2.9650    0.0000 C   0  0  0
   -2.1499    0.5552    0.0000 C   0  0  0
   -0.4843    4.7014    0.0000 C   0  0  0
   -3.7919    2.3625    0.0000 C   0  0  0
   -1.9609    4.4061    0.0000 C   0  0  0
   -3.6265    0.8741    0.0000 N   0  0  0
   -0.0354    6.1426    0.0000 C   0  0  0
   -5.1031    3.1304    0.0000 O   0  0  0
   -4.7487   -0.1181    0.0000 C   0  0  0
   -0.3544    7.6192    0.0000 C   0  0  0
    1.0631    7.1585    0.0000 C   0  0  0
   -4.4534   -1.5711    0.0000 C   0  0  0
   -6.1898    0.3544    0.0000 C   0  0  0
   -5.5756   -2.5633    0.0000 C   0  0  0
   -7.3120   -0.6379    0.0000 C   0  0  0
   -7.0167   -2.0908    0.0000 C   0  0  0
   -5.2803   -4.0163    0.0000 C   0  0  1
   -6.7568   -4.3116    0.0000 F   0  0  0
   -4.9849   -5.4693    0.0000 C   0  0  2
   -3.8273   -3.6974    0.0000 C   0  0  0
   -6.1071   -6.4615    0.0000 F   0  0  0
   -3.5674   -5.9181    0.0000 C   0  0  0
   -3.1185   -7.3357    0.0000 N   0  0  0
   -2.3625   -5.0204    0.0000 N   0  0  0
   -1.6301   -7.3238    0.0000 N   0  0  0
   -1.1576   -5.8945    0.0000 C   0  0  0
   -2.3743   -3.5084    0.0000 C   0  0  0
  1  2  1
  2  3  1
  2  4  1
  2  5  1
  5  6  2
  5  7  1
  6  8  1
  6  9  1
  7 10  2
  8 11  1
  8 12  2
  9 13  1
 10 14  1
 11 15  2
 13 16  1
 14 17  1
 14 18  1
 16 19  2
 16 20  1
 19 21  1
 20 22  2
 21 23  2
 24 21  1  6  0
 24 25  1
 24 26  1
 24 27  1
 26 28  1  1  0
 26 29  1
 29 30  2
 29 31  1
 30 32  1
 31 33  1
 31 34  1
 10 12  1
 11 13  1
 17 18  1
 22 23  1
 32 33  2
M  END
> <COMPOUND_NAMES>
Example 482 (Stereo) (Page No: 632)

> <Reference>
WO2019148005

> <IC50_range_nM>
301-1000

> <smiles>
C[C@@](c1cccc(c1)N1Cc2c(cc(cc2C(F)(F)F)C2CC2)C1=O)([C@@H](c1nncn1C)F)F

$$$$
C23H20F6N4O2
  MOLSOFT 03092310482D

 35 38  0  0  1  0  0  0  0  0999 V2000
    0.0000   -0.0000    0.0000 F   0  0  0
   -0.0118   -1.4906    0.0000 C   0  0  0
    1.4788   -1.4788    0.0000 F   0  0  0
   -1.5261   -1.4788    0.0000 F   0  0  0
   -0.0237   -2.9812    0.0000 C   0  0  0
   -1.3368   -3.7147    0.0000 C   0  0  0
    1.2658   -3.7147    0.0000 C   0  0  0
   -1.3486   -5.2052    0.0000 C   0  0  0
   -2.7801   -3.2414    0.0000 C   0  0  0
    1.2540   -5.2052    0.0000 C   0  0  0
   -2.7919   -5.6548    0.0000 C   0  0  0
   -0.0592   -5.9387    0.0000 C   0  0  0
   -3.6792   -4.4481    0.0000 N   0  0  0
    2.5435   -5.9387    0.0000 C   0  0  3
   -3.2651   -7.0744    0.0000 O   0  0  0
   -5.1934   -4.4363    0.0000 C   0  0  0
    2.5316   -7.4293    0.0000 O   0  0  0
    3.8330   -5.1816    0.0000 C   0  0  0
   -5.9505   -5.7258    0.0000 C   0  0  0
   -5.9505   -3.1231    0.0000 C   0  0  0
   -7.4648   -5.7139    0.0000 C   0  0  0
   -7.4648   -3.1113    0.0000 C   0  0  0
   -8.2219   -4.4008    0.0000 C   0  0  0
   -8.2219   -7.0034    0.0000 C   0  0  1
   -6.9324   -7.7369    0.0000 F   0  0  0
   -8.9790   -8.2929    0.0000 C   0  0  0
   -9.5351   -6.2463    0.0000 C   0  0  0
  -10.2922   -7.5358    0.0000 F   0  0  0
   -7.6896   -9.0264    0.0000 F   0  0  0
   -9.7362   -9.5824    0.0000 C   0  0  0
   -9.1328  -10.9428    0.0000 N   0  0  0
  -11.2386   -9.7243    0.0000 N   0  0  0
  -10.2567  -11.9366    0.0000 N   0  0  0
  -11.5580  -11.1794    0.0000 C   0  0  0
  -12.2560   -8.6005    0.0000 C   0  0  0
  1  2  1
  2  3  1
  2  4  1
  2  5  1
  5  6  2
  5  7  1
  6  8  1
  6  9  1
  7 10  2
  8 11  1
  8 12  2
  9 13  1
 14 10  1
 11 15  2
 13 16  1
 14 17  1
 14 18  1
 16 19  2
 16 20  1
 19 21  1
 20 22  2
 21 23  2
 24 21  1  1  0
 24 25  1
 24 26  1
 24 27  1
 26 28  1
 26 29  1
 26 30  1
 30 31  2
 30 32  1
 31 33  1
 32 34  1
 32 35  1
 10 12  1
 11 13  1
 22 23  1
 33 34  2
M  END
> <COMPOUND_NAMES>
Example 446 (R) (Page No: 596)

> <Reference>
WO2019148005

> <IC50_range_nM>
<100

> <smiles>
CC(c1cc2C(N(Cc2c(c1)C(F)(F)F)c1cccc(c1)[C@](C)(C(c1nncn1C)(F)F)F)=O)O

$$$$
C21H19F3N4O2
  MOLSOFT 03092310482D

 30 33  0  0  0  0  0  0  0  0999 V2000
    0.0000   -0.0000    0.0000 F   0  0  0
    1.1027    1.0088    0.0000 C   0  0  0
    2.0997   -0.0938    0.0000 F   0  0  0
    2.2053    2.0294    0.0000 F   0  0  0
    0.0821    2.1349    0.0000 C   0  0  0
   -1.3959    1.8299    0.0000 C   0  0  0
    0.5279    3.5660    0.0000 C   0  0  0
   -2.4165    2.9561    0.0000 C   0  0  0
   -2.1584    0.5396    0.0000 C   0  0  0
   -0.4927    4.6922    0.0000 C   0  0  0
   -3.8006    2.3578    0.0000 C   0  0  0
   -1.9707    4.3872    0.0000 C   0  0  0
   -3.6364    0.8680    0.0000 N   0  0  0
   -5.1144    3.1203    0.0000 O   0  0  0
   -4.7625   -0.1290    0.0000 C   0  0  0
   -4.4575   -1.5836    0.0000 C   0  0  0
   -6.1936    0.3402    0.0000 C   0  0  0
   -5.5837   -2.5690    0.0000 C   0  0  0
   -7.3198   -0.6569    0.0000 C   0  0  0
   -7.0265   -2.0997    0.0000 C   0  0  0
   -5.2787   -4.0235    0.0000 C   0  0  3
   -3.8593   -4.4693    0.0000 O   0  0  0
   -6.4048   -5.0206    0.0000 C   0  0  0
   -3.5543   -5.9238    0.0000 C   0  0  0
   -6.0998   -6.4752    0.0000 C   0  0  0
   -4.7391   -7.0734    0.0000 N   0  0  0
   -7.1086   -7.5778    0.0000 N   0  0  0
   -4.9033   -8.5514    0.0000 N   0  0  0
   -6.3696   -8.8682    0.0000 C   0  0  0
   -8.6101   -7.4136    0.0000 C   0  0  0
  1  2  1
  2  3  1
  2  4  1
  2  5  1
  5  6  2
  5  7  1
  6  8  1
  6  9  1
  7 10  2
  8 11  1
  8 12  2
  9 13  1
 11 14  2
 13 15  1
 15 16  2
 15 17  1
 16 18  1
 17 19  2
 18 20  2
 21 18  1
 21 23  1
 22 24  1
 23 25  1
 25 26  2
 25 27  1
 26 28  1
 27 29  1
 27 30  1
 10 12  1
 11 13  1
 19 20  1
 28 29  2
 21 22  1
M  END
> <COMPOUND_NAMES>
Example 290 (+/-) (Page No: 497)

> <Reference>
WO2019148005

> <IC50_range_nM>
1001-3000

> <smiles>
Cn1cnnc1CC(c1cccc(c1)N1Cc2c(cccc2C(F)(F)F)C1=O)OC

$$$$
C22H21F3N4O2
  MOLSOFT 03092310482D

 31 34  0  0  0  0  0  0  0  0999 V2000
    0.0000   -0.0000    0.0000 F   0  0  0
    1.1032    1.0093    0.0000 C   0  0  0
    2.1007   -0.0939    0.0000 F   0  0  0
    2.2063    2.0303    0.0000 F   0  0  0
    0.0822    2.1359    0.0000 C   0  0  0
   -1.3966    1.8308    0.0000 C   0  0  0
    0.5281    3.5677    0.0000 C   0  0  0
   -2.4176    2.9574    0.0000 C   0  0  0
   -2.1594    0.5398    0.0000 C   0  0  0
   -0.4929    4.6943    0.0000 C   0  0  0
   -3.8024    2.3589    0.0000 C   0  0  0
   -1.9716    4.3892    0.0000 C   0  0  0
   -3.6381    0.8684    0.0000 N   0  0  0
   -5.1168    3.1217    0.0000 O   0  0  0
   -4.7647   -0.1291    0.0000 C   0  0  0
   -4.4596   -1.5843    0.0000 C   0  0  0
   -6.1965    0.3403    0.0000 C   0  0  0
   -5.5862   -2.5701    0.0000 C   0  0  0
   -7.3231   -0.6572    0.0000 C   0  0  0
   -7.0297   -2.1007    0.0000 C   0  0  0
   -5.2811   -4.0254    0.0000 C   0  0  3
   -3.8611   -4.4713    0.0000 O   0  0  0
   -6.4077   -5.0229    0.0000 C   0  0  0
   -3.5559   -5.9266    0.0000 C   0  0  0
   -6.1026   -6.4782    0.0000 C   0  0  0
   -2.1476   -6.3725    0.0000 C   0  0  0
   -4.7413   -7.0767    0.0000 N   0  0  0
   -7.1119   -7.5813    0.0000 N   0  0  0
   -4.9056   -8.5554    0.0000 N   0  0  0
   -6.3725   -8.8723    0.0000 C   0  0  0
   -8.6141   -7.4170    0.0000 C   0  0  0
  1  2  1
  2  3  1
  2  4  1
  2  5  1
  5  6  2
  5  7  1
  6  8  1
  6  9  1
  7 10  2
  8 11  1
  8 12  2
  9 13  1
 11 14  2
 13 15  1
 15 16  2
 15 17  1
 16 18  1
 17 19  2
 18 20  2
 21 18  1
 21 23  1
 22 24  1
 23 25  1
 24 26  1
 25 27  2
 25 28  1
 27 29  1
 28 30  1
 28 31  1
 10 12  1
 11 13  1
 19 20  1
 29 30  2
 21 22  1
M  END
> <COMPOUND_NAMES>
Example 291 (+/-) (Page No: 498)

> <Reference>
WO2019148005

> <IC50_range_nM>
3001-10000

> <smiles>
CCOC(Cc1nncn1C)c1cccc(c1)N1Cc2c(cccc2C(F)(F)F)C1=O

$$$$
C21H19F3N4O2
  MOLSOFT 03092310482D

 30 33  0  0  0  0  0  0  0  0999 V2000
    0.0000   -0.0000    0.0000 F   0  0  0
    1.0987    1.0160    0.0000 C   0  0  0
    2.0910   -0.0827    0.0000 F   0  0  0
    2.1974    2.0320    0.0000 F   0  0  0
    0.0827    2.1383    0.0000 C   0  0  0
   -1.3940    1.8430    0.0000 C   0  0  0
    0.5316    3.5796    0.0000 C   0  0  0
   -2.4100    2.9653    0.0000 C   0  0  0
   -2.1501    0.5552    0.0000 C   0  0  0
   -0.4844    4.7019    0.0000 C   0  0  0
   -3.7922    2.3628    0.0000 C   0  0  0
   -1.9611    4.4066    0.0000 C   0  0  0
   -3.6268    0.8742    0.0000 N   0  0  0
   -5.1036    3.1307    0.0000 O   0  0  0
   -4.7492   -0.1181    0.0000 C   0  0  0
   -4.4538   -1.5712    0.0000 C   0  0  0
   -6.1904    0.3544    0.0000 C   0  0  0
   -5.5761   -2.5636    0.0000 C   0  0  0
   -7.3127   -0.6379    0.0000 C   0  0  0
   -7.0174   -2.0910    0.0000 C   0  0  0
   -5.2808   -4.0167    0.0000 C   0  0  3
   -6.7575   -4.3120    0.0000 O   0  0  0
   -4.9854   -5.4698    0.0000 C   0  0  0
   -3.8277   -3.6977    0.0000 C   0  0  0
   -3.5678   -5.9187    0.0000 C   0  0  0
   -3.1188   -7.3364    0.0000 N   0  0  0
   -2.3628   -5.0209    0.0000 N   0  0  0
   -1.6303   -7.3246    0.0000 N   0  0  0
   -1.1578   -5.8951    0.0000 C   0  0  0
   -2.3746   -3.5087    0.0000 C   0  0  0
  1  2  1
  2  3  1
  2  4  1
  2  5  1
  5  6  2
  5  7  1
  6  8  1
  6  9  1
  7 10  2
  8 11  1
  8 12  2
  9 13  1
 11 14  2
 13 15  1
 15 16  2
 15 17  1
 16 18  1
 17 19  2
 18 20  2
 21 22  1
 21 23  1
 21 24  1
 23 25  1
 25 26  2
 25 27  1
 26 28  1
 27 29  1
 27 30  1
 10 12  1
 11 13  1
 19 20  1
 28 29  2
 21 18  1
M  END
> <COMPOUND_NAMES>
Example 297 (+/-) (Page No: 504)

> <Reference>
WO2019148005

> <IC50_range_nM>
3001-10000

> <smiles>
CC(Cc1nncn1C)(c1cccc(c1)N1Cc2c(cccc2C(F)(F)F)C1=O)O

$$$$
C21H17F5N4O2
  MOLSOFT 03092310482D

 32 35  0  0  0  0  0  0  0  0999 V2000
    0.0000   -0.0000    0.0000 F   0  0  0
    1.1023    1.0085    0.0000 C   0  0  0
    2.0991   -0.0938    0.0000 F   0  0  0
    2.2046    2.0287    0.0000 F   0  0  0
    0.0821    2.1343    0.0000 C   0  0  0
   -1.3955    1.8294    0.0000 C   0  0  0
    0.5277    3.5649    0.0000 C   0  0  0
   -2.4157    2.9551    0.0000 C   0  0  0
   -2.1577    0.5394    0.0000 C   0  0  0
   -0.4925    4.6907    0.0000 C   0  0  0
   -3.7994    2.3571    0.0000 C   0  0  0
   -1.9701    4.3858    0.0000 C   0  0  0
   -3.6353    0.8678    0.0000 N   0  0  0
   -5.1128    3.1193    0.0000 O   0  0  0
   -4.7610   -0.1290    0.0000 C   0  0  0
   -4.4561   -1.5831    0.0000 C   0  0  0
   -6.1917    0.3401    0.0000 C   0  0  0
   -5.5819   -2.5681    0.0000 C   0  0  0
   -7.3174   -0.6567    0.0000 C   0  0  0
   -7.0243   -2.0991    0.0000 C   0  0  0
   -5.2770   -4.0222    0.0000 C   0  0  3
   -6.7546   -4.3271    0.0000 O   0  0  0
   -4.9721   -5.4764    0.0000 C   0  0  0
   -3.8229   -3.6939    0.0000 C   0  0  0
   -3.5180   -5.1480    0.0000 F   0  0  0
   -6.4497   -5.7812    0.0000 F   0  0  0
   -4.6672   -6.9305    0.0000 C   0  0  0
   -5.6874   -8.0328    0.0000 N   0  0  0
   -3.3069   -7.5285    0.0000 N   0  0  0
   -4.9487   -9.3227    0.0000 N   0  0  0
   -3.4711   -9.0061    0.0000 C   0  0  0
   -2.0170   -6.7663    0.0000 C   0  0  0
  1  2  1
  2  3  1
  2  4  1
  2  5  1
  5  6  2
  5  7  1
  6  8  1
  6  9  1
  7 10  2
  8 11  1
  8 12  2
  9 13  1
 11 14  2
 13 15  1
 15 16  2
 15 17  1
 16 18  1
 17 19  2
 18 20  2
 21 22  1
 21 23  1
 21 24  1
 23 25  1
 23 26  1
 23 27  1
 27 28  2
 27 29  1
 28 30  1
 29 31  1
 29 32  1
 10 12  1
 11 13  1
 19 20  1
 30 31  2
 21 18  1
M  END
> <COMPOUND_NAMES>
Example 295 (+/-) (Page No: 502)

> <Reference>
WO2019148005

> <IC50_range_nM>
3001-10000

> <smiles>
CC(c1cccc(c1)N1Cc2c(cccc2C(F)(F)F)C1=O)(C(c1nncn1C)(F)F)O

$$$$
C24H24F3N5O2
  MOLSOFT 03092310482D

 34 38  0  0  1  0  0  0  0  0999 V2000
    0.0000   -0.0000    0.0000 F   0  0  0
    1.1031    1.0093    0.0000 C   0  0  0
    2.0889   -0.0939    0.0000 F   0  0  0
    2.2063    2.0185    0.0000 F   0  0  0
    0.0939    2.1359    0.0000 C   0  0  0
   -1.3848    1.8307    0.0000 C   0  0  0
    0.5398    3.5676    0.0000 C   0  0  0
   -2.3940    2.9573    0.0000 C   0  0  0
   -2.1476    0.5398    0.0000 C   0  0  0
   -0.4694    4.6942    0.0000 C   0  0  0
   -3.7788    2.3588    0.0000 C   0  0  0
   -1.9481    4.3891    0.0000 C   0  0  0
   -3.6263    0.8684    0.0000 N   0  0  0
   -5.0932    3.1216    0.0000 O   0  0  0
   -4.7529   -0.1174    0.0000 C   0  0  0
   -6.1846    0.3521    0.0000 C   0  0  0
   -4.4477   -1.5726    0.0000 C   0  0  0
   -7.3112   -0.6337    0.0000 C   0  0  0
   -5.5744   -2.5583    0.0000 C   0  0  0
   -8.7429   -0.1643    0.0000 N   0  0  0
   -7.0061   -2.0889    0.0000 C   0  0  0
   -5.2692   -4.0135    0.0000 C   0  0  1
   -9.0715    1.3144    0.0000 C   0  0  0
   -3.8610   -4.4595    0.0000 C   0  0  0
   -6.3958   -4.9993    0.0000 C   0  0  0
  -10.3390    2.1359    0.0000 C   0  0  0
   -8.2618    2.5818    0.0000 C   0  0  0
   -3.5559   -5.9147    0.0000 C   0  0  0
   -9.5292    3.4033    0.0000 O   0  0  0
   -2.1945   -6.5132    0.0000 N   0  0  0
   -4.5651   -7.0178    0.0000 N   0  0  0
   -2.3588   -7.9919    0.0000 N   0  0  0
   -3.8258   -8.2970    0.0000 C   0  0  0
   -6.0672   -6.8535    0.0000 C   0  0  0
  1  2  1
  2  3  1
  2  4  1
  2  5  1
  5  6  2
  5  7  1
  6  8  1
  6  9  1
  7 10  2
  8 11  1
  8 12  2
  9 13  1
 11 14  2
 13 15  1
 15 16  2
 15 17  1
 16 18  1
 17 19  2
 18 20  1
 18 21  2
 22 19  1
 20 23  1
 22 24  1
 22 25  1  1  0
 23 26  1
 23 27  1
 24 28  1
 26 29  1
 28 30  2
 28 31  1
 30 32  1
 31 33  1
 31 34  1
 10 12  1
 11 13  1
 19 21  1
 27 29  1
 32 33  2
M  END
> <COMPOUND_NAMES>
Example 350 (R) (Page No: 539)

> <Reference>
WO2019148005

> <IC50_range_nM>
301-1000

> <smiles>
C[C@H](Cc1nncn1C)c1cc(cc(c1)N1Cc2c(cccc2C(F)(F)F)C1=O)NC1COC1

$$$$
C20H17F3N4O
  MOLSOFT 03092310482D

 28 31  0  0  1  0  0  0  0  0999 V2000
    0.0000   -0.0000    0.0000 F   0  0  0
    1.1026    1.0087    0.0000 C   0  0  0
    2.0996   -0.0938    0.0000 F   0  0  0
    2.2052    2.0292    0.0000 F   0  0  0
    0.0821    2.1348    0.0000 C   0  0  0
   -1.3958    1.8298    0.0000 C   0  0  0
    0.5278    3.5658    0.0000 C   0  0  0
   -2.4163    2.9558    0.0000 C   0  0  0
   -2.1582    0.5396    0.0000 C   0  0  0
   -0.4926    4.6918    0.0000 C   0  0  0
   -3.8004    2.3576    0.0000 C   0  0  0
   -1.9706    4.3868    0.0000 C   0  0  0
   -3.6362    0.8680    0.0000 N   0  0  0
   -5.1141    3.1201    0.0000 O   0  0  0
   -4.7622   -0.1290    0.0000 C   0  0  0
   -4.4572   -1.5835    0.0000 C   0  0  0
   -6.1932    0.3402    0.0000 C   0  0  0
   -5.5833   -2.5688    0.0000 C   0  0  0
   -7.3192   -0.6569    0.0000 C   0  0  0
   -7.0260   -2.0996    0.0000 C   0  0  0
   -5.2783   -4.0232    0.0000 C   0  0  1
   -3.8590   -4.4690    0.0000 C   0  0  0
   -6.4043   -5.0202    0.0000 C   0  0  0
   -3.5540   -5.9234    0.0000 C   0  0  0
   -2.1934   -6.5216    0.0000 N   0  0  0
   -4.5628   -7.0260    0.0000 N   0  0  0
   -2.3576   -7.9995    0.0000 N   0  0  0
   -3.8238   -8.3162    0.0000 C   0  0  0
  1  2  1
  2  3  1
  2  4  1
  2  5  1
  5  6  2
  5  7  1
  6  8  1
  6  9  1
  7 10  2
  8 11  1
  8 12  2
  9 13  1
 11 14  2
 13 15  1
 15 16  2
 15 17  1
 16 18  1
 17 19  2
 18 20  2
 21 18  1
 21 22  1
 21 23  1  1  0
 22 24  1
 24 25  2
 24 26  1
 25 27  1
 26 28  2
 10 12  1
 11 13  1
 19 20  1
 27 28  1
M  END
> <COMPOUND_NAMES>
Example 262 (R) (Page No: 475)

> <Reference>
WO2019148005

> <IC50_range_nM>
301-1000

> <smiles>
C[C@H](Cc1nc[nH]n1)c1cccc(c1)N1Cc2c(cccc2C(F)(F)F)C1=O

$$$$
C26H18F7N5O
  MOLSOFT 03092310482D

 39 43  0  0  1  0  0  0  0  0999 V2000
    0.0000   -0.0000    0.0000 F   0  0  0
    0.9906   -1.1085    0.0000 C   0  0  0
    2.4529   -0.7783    0.0000 C   0  0  0
    0.5189   -2.5236    0.0000 C   0  0  0
    3.4435   -1.8868    0.0000 N   0  0  0
    1.5095   -3.6321    0.0000 C   0  0  0
    2.9718   -3.3019    0.0000 C   0  0  0
    1.0378   -5.0473    0.0000 C   0  0  0
    2.0283   -6.1558    0.0000 C   0  0  0
   -0.4481   -5.3539    0.0000 C   0  0  0
    1.5566   -7.5709    0.0000 C   0  0  0
   -0.9198   -6.7690    0.0000 C   0  0  0
    0.0708   -7.8775    0.0000 C   0  0  0
    2.5472   -8.6794    0.0000 C   0  0  0
   -2.3114   -7.3704    0.0000 C   0  0  0
   -0.6958   -9.1747    0.0000 C   0  0  0
    1.4151   -9.6700    0.0000 F   0  0  0
    3.5378   -9.7879    0.0000 F   0  0  0
    3.6557   -7.6652    0.0000 F   0  0  0
   -3.6321   -6.6039    0.0000 O   0  0  0
   -2.1699   -8.8563    0.0000 N   0  0  0
   -3.3019   -9.8469    0.0000 C   0  0  0
   -2.9953  -11.3092    0.0000 C   0  0  0
   -4.7407   -9.3752    0.0000 C   0  0  0
   -4.1274  -12.2998    0.0000 C   0  0  0
   -5.8727  -10.3658    0.0000 C   0  0  0
   -5.5661  -11.8280    0.0000 C   0  0  0
   -3.8208  -13.7620    0.0000 C   0  0  1
   -5.3067  -14.0687    0.0000 F   0  0  0
   -3.5142  -15.2243    0.0000 C   0  0  0
   -2.3585  -13.4319    0.0000 C   0  0  0
   -2.0519  -14.8941    0.0000 F   0  0  0
   -5.0001  -15.5309    0.0000 F   0  0  0
   -3.2076  -16.6866    0.0000 C   0  0  0
   -4.2218  -17.7951    0.0000 N   0  0  0
   -1.8397  -17.2881    0.0000 N   0  0  0
   -3.4788  -19.0923    0.0000 N   0  0  0
   -2.0048  -18.7739    0.0000 C   0  0  0
   -0.5425  -16.5215    0.0000 C   0  0  0
  1  2  1
  2  3  2
  2  4  1
  3  5  1
  4  6  2
  5  7  2
  6  8  1
  8  9  2
  8 10  1
  9 11  1
 10 12  2
 11 13  2
 11 14  1
 12 15  1
 13 16  1
 14 17  1
 14 18  1
 14 19  1
 15 20  2
 15 21  1
 21 22  1
 22 23  2
 22 24  1
 23 25  1
 24 26  2
 25 27  2
 28 25  1  6  0
 28 29  1
 28 30  1
 28 31  1
 30 32  1
 30 33  1
 30 34  1
 34 35  2
 34 36  1
 35 37  1
 36 38  1
 36 39  1
  6  7  1
 12 13  1
 16 21  1
 26 27  1
 37 38  2
M  END
> <COMPOUND_NAMES>
Example 440 (R) (Page No: 592)

> <Reference>
WO2019148005

> <IC50_range_nM>
101-300

> <smiles>
C[C@@](c1cccc(c1)N1Cc2c(cc(cc2C(F)(F)F)c2cc(cnc2)F)C1=O)(C(c1nncn1C)(F)F)F

$$$$
C27H29N5O3
  MOLSOFT 03092310482D

 35 40  0  0  1  0  0  0  0  0999 V2000
    0.0000   -0.0000    0.0000 O   0  0  0
    1.2975   -0.7431    0.0000 C   0  0  0
    1.4390   -2.2293    0.0000 N   0  0  0
    2.6657   -0.1180    0.0000 C   0  0  0
    0.3067   -3.2201    0.0000 C   0  0  0
    2.9016   -2.5360    0.0000 C   0  0  0
    3.6565   -1.2267    0.0000 C   0  0  0
    3.1140    1.3211    0.0000 C   0  0  0
    0.6134   -4.6827    0.0000 C   0  0  0
   -1.1323   -2.7483    0.0000 C   0  0  0
    5.1192   -0.8964    0.0000 C   0  0  0
    4.5766    1.6513    0.0000 C   0  0  0
   -0.5190   -5.6735    0.0000 C   0  0  0
   -2.2647   -3.7391    0.0000 C   0  0  0
    5.5674    0.5426    0.0000 C   0  0  0
    6.1100   -2.0052    0.0000 C   0  0  0
    5.0248    3.0904    0.0000 C   0  0  0
   -1.9580   -5.2017    0.0000 C   0  0  0
   -0.2123   -7.1362    0.0000 C   0  0  1
    7.5254   -2.4534    0.0000 C   0  0  0
    6.4166   -3.4678    0.0000 C   0  0  0
    4.0104    4.2227    0.0000 O   0  0  0
    6.4874    3.4206    0.0000 N   0  0  0
    1.2031   -7.5844    0.0000 C   0  0  0
   -1.3447   -8.1270    0.0000 C   0  0  0
    7.3013    4.6945    0.0000 C   0  0  0
    7.7377    2.6068    0.0000 C   0  0  0
    1.5098   -9.0470    0.0000 C   0  0  0
    8.5516    3.8807    0.0000 C   0  0  0
    2.8781   -9.6486    0.0000 N   0  0  0
    0.4954  -10.1558    0.0000 N   0  0  0
   10.0142    4.2109    0.0000 O   0  0  0
    2.7129  -11.1348    0.0000 N   0  0  0
    1.2385  -11.4414    0.0000 C   0  0  0
   -1.0144   -9.9906    0.0000 C   0  0  0
  1  2  2
  2  3  1
  2  4  1
  3  5  1
  3  6  1
  4  7  2
  4  8  1
  5  9  2
  5 10  1
  7 11  1
  8 12  2
  9 13  1
 10 14  2
 11 15  2
 11 16  1
 12 17  1
 13 18  2
 19 13  1
 16 20  1
 16 21  1
 17 22  2
 17 23  1
 19 24  1
 19 25  1  1  0
 23 26  1
 23 27  1
 24 28  1
 26 29  1
 28 30  2
 28 31  1
 29 32  1
 30 33  1
 31 34  1
 31 35  1
  6  7  1
 12 15  1
 14 18  1
 20 21  1
 27 29  1
 33 34  2
M  END
> <COMPOUND_NAMES>
Example 278 (R) (Page No: 486)

> <Reference>
WO2019148005

> <IC50_range_nM>
<100

> <smiles>
C[C@H](Cc1nncn1C)c1cccc(c1)N1Cc2c(cc(cc2C1=O)C(N1CC(C1)O)=O)C1CC1

$$$$
C28H31N5O3
  MOLSOFT 03092310482D

 36 41  0  0  1  0  0  0  0  0999 V2000
    0.0000   -0.0000    0.0000 O   0  0  0
    1.2978   -0.7433    0.0000 C   0  0  0
    1.4393   -2.2298    0.0000 N   0  0  0
    2.6663   -0.1180    0.0000 C   0  0  0
    0.3067   -3.2208    0.0000 C   0  0  0
    2.9022   -2.5365    0.0000 C   0  0  0
    3.6573   -1.2270    0.0000 C   0  0  0
    3.1146    1.3213    0.0000 C   0  0  0
    0.6135   -4.6837    0.0000 C   0  0  0
   -1.1326   -2.7489    0.0000 C   0  0  0
    5.1202   -0.8966    0.0000 C   0  0  0
    4.5775    1.6517    0.0000 C   0  0  0
   -0.5191   -5.6747    0.0000 C   0  0  0
   -2.2652   -3.7399    0.0000 C   0  0  0
    5.5685    0.5427    0.0000 C   0  0  0
    6.1112   -2.0056    0.0000 C   0  0  0
    5.0258    3.0910    0.0000 C   0  0  0
   -1.9584   -5.2028    0.0000 C   0  0  0
   -0.2124   -7.1376    0.0000 C   0  0  1
    7.5270   -2.4539    0.0000 C   0  0  0
    6.4180   -3.4685    0.0000 C   0  0  0
    4.0112    4.2236    0.0000 O   0  0  0
    6.4888    3.4213    0.0000 N   0  0  0
    1.2034   -7.5860    0.0000 C   0  0  0
   -1.3449   -8.1287    0.0000 C   0  0  0
    7.5978    2.4303    0.0000 C   0  0  0
    7.0904    4.8135    0.0000 C   0  0  0
    1.5101   -9.0489    0.0000 C   0  0  0
    8.8837    3.1972    0.0000 C   0  0  2
    8.5770    4.6719    0.0000 C   0  0  0
    2.8787   -9.6506    0.0000 N   0  0  0
    0.4955  -10.1579    0.0000 N   0  0  0
   10.2522    2.5955    0.0000 O   0  0  0
    2.7135  -11.1371    0.0000 N   0  0  0
    1.2388  -11.4438    0.0000 C   0  0  0
   -1.0146   -9.9927    0.0000 C   0  0  0
  1  2  2
  2  3  1
  2  4  1
  3  5  1
  3  6  1
  4  7  2
  4  8  1
  5  9  2
  5 10  1
  7 11  1
  8 12  2
  9 13  1
 10 14  2
 11 15  2
 11 16  1
 12 17  1
 13 18  2
 19 13  1
 16 20  1
 16 21  1
 17 22  2
 17 23  1
 19 24  1
 19 25  1  1  0
 23 26  1
 23 27  1
 24 28  1
 29 26  1
 27 30  1
 28 31  2
 28 32  1
 29 33  1  6  0
 31 34  1
 32 35  1
 32 36  1
  6  7  1
 12 15  1
 14 18  1
 20 21  1
 29 30  1
 34 35  2
M  END
> <COMPOUND_NAMES>
Example 277 (Stereo) (Page No: 484)

> <Reference>
WO2019148005

> <IC50_range_nM>
<100

> <smiles>
C[C@H](Cc1nncn1C)c1cccc(c1)N1Cc2c(cc(cc2C1=O)C(N1CC[C@@H](C1)O)=O)C1CC1

$$$$
C25H27F3N6O
  MOLSOFT 03092310482D

 35 39  0  0  1  0  0  0  0  0999 V2000
    0.0000   -0.0000    0.0000 F   0  0  0
    1.1050    1.0109    0.0000 C   0  0  0
    2.0924   -0.0940    0.0000 F   0  0  0
    2.2100    2.0219    0.0000 F   0  0  0
    0.0940    2.1394    0.0000 C   0  0  0
   -1.3871    1.8338    0.0000 C   0  0  0
    0.5407    3.5736    0.0000 C   0  0  0
   -2.3980    2.9623    0.0000 C   0  0  0
   -2.1512    0.5407    0.0000 C   0  0  0
   -0.4702    4.7021    0.0000 C   0  0  0
   -3.7852    2.3628    0.0000 C   0  0  0
   -1.9514    4.3964    0.0000 C   0  0  0
   -3.6323    0.8699    0.0000 N   0  0  0
   -0.0235    6.1362    0.0000 N   0  0  0
   -5.1017    3.1269    0.0000 O   0  0  0
   -4.7608   -0.1176    0.0000 C   0  0  0
    1.4341    6.4653    0.0000 C   0  0  2
   -4.4552   -1.5752    0.0000 C   0  0  0
   -6.1950    0.3527    0.0000 C   0  0  0
    2.5391    5.4779    0.0000 C   0  0  0
    2.0336    7.8524    0.0000 C   0  0  0
   -5.5837   -2.5626    0.0000 C   0  0  0
   -7.3235   -0.6348    0.0000 C   0  0  0
    3.8204    6.2420    0.0000 N   0  0  0
    3.5148    7.7114    0.0000 C   0  0  0
   -7.0178   -2.0924    0.0000 C   0  0  0
   -5.2781   -4.0203    0.0000 C   0  0  1
   -3.8674   -4.4670    0.0000 C   0  0  0
   -6.4065   -5.0077    0.0000 C   0  0  0
   -3.5618   -5.9246    0.0000 C   0  0  0
   -2.1982   -6.5241    0.0000 N   0  0  0
   -4.5727   -7.0296    0.0000 N   0  0  0
   -2.3628   -8.0052    0.0000 N   0  0  0
   -3.8322   -8.3109    0.0000 C   0  0  0
   -6.0774   -6.8650    0.0000 C   0  0  0
  1  2  1
  2  3  1
  2  4  1
  2  5  1
  5  6  2
  5  7  1
  6  8  1
  6  9  1
  7 10  2
  8 11  1
  8 12  2
  9 13  1
 10 14  1
 11 15  2
 13 16  1
 17 14  1  1  0
 16 18  2
 16 19  1
 17 20  1
 17 21  1
 18 22  1
 19 23  2
 20 24  1
 21 25  1
 22 26  2
 27 22  1
 27 28  1
 27 29  1  1  0
 28 30  1
 30 31  2
 30 32  1
 31 33  1
 32 34  1
 32 35  1
 10 12  1
 11 13  1
 23 26  1
 24 25  1
 33 34  2
M  END
> <COMPOUND_NAMES>
Example 379 (Stereo) (Page No: 557)

> <Reference>
WO2019148005

> <IC50_range_nM>
<100

> <smiles>
C[C@H](Cc1nncn1C)c1cccc(c1)N1Cc2c(cc(cc2C(F)(F)F)N[C@H]2CCNC2)C1=O

$$$$
C26H29F3N6O
  MOLSOFT 03092310482D

 36 40  0  0  1  0  0  0  0  0999 V2000
    0.0000   -0.0000    0.0000 F   0  0  0
    1.1047    1.0107    0.0000 C   0  0  0
    2.0919   -0.0940    0.0000 F   0  0  0
    2.2094    2.0214    0.0000 F   0  0  0
    0.0940    2.1389    0.0000 C   0  0  0
   -1.3868    1.8333    0.0000 C   0  0  0
    0.5406    3.5727    0.0000 C   0  0  0
   -2.3974    2.9615    0.0000 C   0  0  0
   -2.1506    0.5406    0.0000 C   0  0  0
   -0.4701    4.7009    0.0000 C   0  0  0
   -3.7842    2.3622    0.0000 C   0  0  0
   -1.9509    4.3953    0.0000 C   0  0  0
   -3.6314    0.8697    0.0000 N   0  0  0
   -0.0235    6.1346    0.0000 N   0  0  0
   -5.1004    3.1261    0.0000 O   0  0  0
   -4.7596   -0.1175    0.0000 C   0  0  0
    1.4338    6.4637    0.0000 C   0  0  2
   -1.0342    7.2628    0.0000 C   0  0  0
   -4.4541   -1.5748    0.0000 C   0  0  0
   -6.1934    0.3526    0.0000 C   0  0  0
    2.5385    5.4765    0.0000 C   0  0  0
    2.0331    7.8505    0.0000 C   0  0  0
   -5.5823   -2.5620    0.0000 C   0  0  0
   -7.3216   -0.6346    0.0000 C   0  0  0
    3.8195    6.2404    0.0000 N   0  0  0
    3.5139    7.7094    0.0000 C   0  0  0
   -7.0161   -2.0919    0.0000 C   0  0  0
   -5.2767   -4.0192    0.0000 C   0  0  1
   -3.8665   -4.4658    0.0000 C   0  0  0
   -6.4049   -5.0064    0.0000 C   0  0  0
   -3.5609   -5.9231    0.0000 C   0  0  0
   -2.1977   -6.5225    0.0000 N   0  0  0
   -4.5716   -7.0278    0.0000 N   0  0  0
   -2.3622   -8.0032    0.0000 N   0  0  0
   -3.8312   -8.3088    0.0000 C   0  0  0
   -6.0759   -6.8633    0.0000 C   0  0  0
  1  2  1
  2  3  1
  2  4  1
  2  5  1
  5  6  2
  5  7  1
  6  8  1
  6  9  1
  7 10  2
  8 11  1
  8 12  2
  9 13  1
 10 14  1
 11 15  2
 13 16  1
 17 14  1  1  0
 14 18  1
 16 19  2
 16 20  1
 17 21  1
 17 22  1
 19 23  1
 20 24  2
 21 25  1
 22 26  1
 23 27  2
 28 23  1
 28 29  1
 28 30  1  1  0
 29 31  1
 31 32  2
 31 33  1
 32 34  1
 33 35  1
 33 36  1
 10 12  1
 11 13  1
 24 27  1
 25 26  1
 34 35  2
M  END
> <COMPOUND_NAMES>
Example 380 (Stereo) (Page No: 558)

> <Reference>
WO2019148005

> <IC50_range_nM>
<100

> <smiles>
C[C@H](Cc1nncn1C)c1cccc(c1)N1Cc2c(cc(cc2C(F)(F)F)N(C)[C@H]2CCNC2)C1=O

$$$$
C25H26F3N5O2
  MOLSOFT 03092310482D

 35 39  0  0  1  0  0  0  0  0999 V2000
    0.0000   -0.0000    0.0000 F   0  0  0
    1.1048    1.0108    0.0000 C   0  0  0
    2.0921   -0.0940    0.0000 F   0  0  0
    2.2097    2.0216    0.0000 F   0  0  0
    0.0940    2.1392    0.0000 C   0  0  0
   -1.3869    1.8336    0.0000 C   0  0  0
    0.5407    3.5731    0.0000 C   0  0  0
   -2.3977    2.9619    0.0000 C   0  0  0
   -2.1509    0.5407    0.0000 C   0  0  0
   -0.4701    4.7015    0.0000 C   0  0  0
   -3.7847    2.3625    0.0000 C   0  0  0
   -1.9511    4.3959    0.0000 C   0  0  0
   -3.6319    0.8698    0.0000 N   0  0  0
   -0.0235    6.1354    0.0000 C   0  0  0
   -5.1011    3.1265    0.0000 O   0  0  0
   -4.7602   -0.1175    0.0000 C   0  0  0
    1.4339    6.4645    0.0000 N   0  0  0
   -4.4546   -1.5750    0.0000 C   0  0  0
   -6.1942    0.3526    0.0000 C   0  0  0
    2.2449    7.7339    0.0000 C   0  0  0
    2.6798    5.6535    0.0000 C   0  0  0
   -5.5830   -2.5623    0.0000 C   0  0  0
   -7.3225   -0.6347    0.0000 C   0  0  0
    3.4908    6.9229    0.0000 C   0  0  0
   -7.0169   -2.0921    0.0000 C   0  0  0
   -5.2774   -4.0197    0.0000 C   0  0  1
    4.9483    7.2520    0.0000 O   0  0  0
   -3.8669   -4.4664    0.0000 C   0  0  0
   -6.4057   -5.0071    0.0000 C   0  0  0
   -3.5614   -5.9238    0.0000 C   0  0  0
   -2.1979   -6.5233    0.0000 N   0  0  0
   -4.5722   -7.0287    0.0000 N   0  0  0
   -2.3625   -8.0042    0.0000 N   0  0  0
   -3.8317   -8.3098    0.0000 C   0  0  0
   -6.0766   -6.8641    0.0000 C   0  0  0
  1  2  1
  2  3  1
  2  4  1
  2  5  1
  5  6  2
  5  7  1
  6  8  1
  6  9  1
  7 10  2
  8 11  1
  8 12  2
  9 13  1
 10 14  1
 11 15  2
 13 16  1
 14 17  1
 16 18  2
 16 19  1
 17 20  1
 17 21  1
 18 22  1
 19 23  2
 20 24  1
 22 25  2
 26 22  1
 24 27  1
 26 28  1
 26 29  1  1  0
 28 30  1
 30 31  2
 30 32  1
 31 33  1
 32 34  1
 32 35  1
 10 12  1
 11 13  1
 21 24  1
 23 25  1
 33 34  2
M  END
> <COMPOUND_NAMES>
Example 393 (R) (Page No: 567)

> <Reference>
WO2019148005

> <IC50_range_nM>
<100

> <smiles>
C[C@H](Cc1nncn1C)c1cccc(c1)N1Cc2c(cc(CN3CC(C3)O)cc2C(F)(F)F)C1=O

$$$$
C26H28F3N5O2
  MOLSOFT 03092310482D

 36 40  0  0  1  0  0  0  0  0999 V2000
    0.0000   -0.0000    0.0000 F   0  0  0
    1.1046    1.0106    0.0000 C   0  0  0
    2.0916   -0.0940    0.0000 F   0  0  0
    2.2091    2.0211    0.0000 F   0  0  0
    0.0940    2.1386    0.0000 C   0  0  0
   -1.3866    1.8331    0.0000 C   0  0  0
    0.5405    3.5722    0.0000 C   0  0  0
   -2.3971    2.9612    0.0000 C   0  0  0
   -2.1504    0.5405    0.0000 C   0  0  0
   -0.4700    4.7003    0.0000 C   0  0  0
   -3.7837    2.3619    0.0000 C   0  0  0
   -1.9506    4.3948    0.0000 C   0  0  0
   -3.6310    0.8696    0.0000 N   0  0  0
   -0.0235    6.1339    0.0000 C   0  0  1
   -5.0998    3.1257    0.0000 O   0  0  0
   -4.7590   -0.1175    0.0000 C   0  0  0
    1.4336    6.4629    0.0000 N   0  0  0
   -1.0341    7.2619    0.0000 C   0  0  0
   -4.4535   -1.5746    0.0000 C   0  0  0
   -6.1926    0.3525    0.0000 C   0  0  0
    2.2444    7.7320    0.0000 C   0  0  0
    2.6792    5.6521    0.0000 C   0  0  0
   -5.5816   -2.5617    0.0000 C   0  0  0
   -7.3207   -0.6345    0.0000 C   0  0  0
    3.4900    6.9212    0.0000 C   0  0  0
   -7.0152   -2.0916    0.0000 C   0  0  0
   -5.2761   -4.0187    0.0000 C   0  0  1
    4.9471    7.2502    0.0000 O   0  0  0
   -3.8660   -4.4653    0.0000 C   0  0  0
   -6.4041   -5.0058    0.0000 C   0  0  0
   -3.5605   -5.9224    0.0000 C   0  0  0
   -2.1974   -6.5217    0.0000 N   0  0  0
   -4.5710   -7.0269    0.0000 N   0  0  0
   -2.3619   -8.0022    0.0000 N   0  0  0
   -3.8307   -8.3078    0.0000 C   0  0  0
   -6.0751   -6.8624    0.0000 C   0  0  0
  1  2  1
  2  3  1
  2  4  1
  2  5  1
  5  6  2
  5  7  1
  6  8  1
  6  9  1
  7 10  2
  8 11  1
  8 12  2
  9 13  1
 14 10  1
 11 15  2
 13 16  1
 14 17  1  6  0
 14 18  1
 16 19  2
 16 20  1
 17 21  1
 17 22  1
 19 23  1
 20 24  2
 21 25  1
 23 26  2
 27 23  1
 25 28  1
 27 29  1
 27 30  1  1  0
 29 31  1
 31 32  2
 31 33  1
 32 34  1
 33 35  1
 33 36  1
 10 12  1
 11 13  1
 22 25  1
 24 26  1
 34 35  2
M  END
> <COMPOUND_NAMES>
Example 406 (Stereo) (Page No: 574)

> <Reference>
WO2019148005

> <IC50_range_nM>
<100

> <smiles>
C[C@@H](c1cc2C(N(Cc2c(c1)C(F)(F)F)c1cccc(c1)[C@H](C)Cc1nncn1C)=O)N1CC(C1)O

$$$$
C26H28F3N5O2
  MOLSOFT 03092310482D

 36 40  0  0  1  0  0  0  0  0999 V2000
    0.0000   -0.0000    0.0000 F   0  0  0
    1.1046    1.0106    0.0000 C   0  0  0
    2.0916   -0.0940    0.0000 F   0  0  0
    2.2091    2.0211    0.0000 F   0  0  0
    0.0940    2.1386    0.0000 C   0  0  0
   -1.3866    1.8331    0.0000 C   0  0  0
    0.5405    3.5722    0.0000 C   0  0  0
   -2.3971    2.9612    0.0000 C   0  0  0
   -2.1504    0.5405    0.0000 C   0  0  0
   -0.4700    4.7003    0.0000 C   0  0  0
   -3.7837    2.3619    0.0000 C   0  0  0
   -1.9506    4.3948    0.0000 C   0  0  0
   -3.6310    0.8696    0.0000 N   0  0  0
   -0.0235    6.1339    0.0000 C   0  0  1
   -5.0998    3.1257    0.0000 O   0  0  0
   -4.7590   -0.1175    0.0000 C   0  0  0
    1.4336    6.4629    0.0000 N   0  0  0
   -1.0341    7.2619    0.0000 C   0  0  0
   -4.4535   -1.5746    0.0000 C   0  0  0
   -6.1926    0.3525    0.0000 C   0  0  0
    2.2444    7.7320    0.0000 C   0  0  0
    2.6792    5.6521    0.0000 C   0  0  0
   -5.5816   -2.5617    0.0000 C   0  0  0
   -7.3207   -0.6345    0.0000 C   0  0  0
    3.4900    6.9212    0.0000 C   0  0  0
   -7.0152   -2.0916    0.0000 C   0  0  0
   -5.2761   -4.0187    0.0000 C   0  0  2
    4.9471    7.2502    0.0000 O   0  0  0
   -3.8660   -4.4653    0.0000 C   0  0  0
   -6.4041   -5.0058    0.0000 C   0  0  0
   -3.5605   -5.9224    0.0000 C   0  0  0
   -2.1974   -6.5217    0.0000 N   0  0  0
   -4.5710   -7.0269    0.0000 N   0  0  0
   -2.3619   -8.0022    0.0000 N   0  0  0
   -3.8307   -8.3078    0.0000 C   0  0  0
   -6.0751   -6.8624    0.0000 C   0  0  0
  1  2  1
  2  3  1
  2  4  1
  2  5  1
  5  6  2
  5  7  1
  6  8  1
  6  9  1
  7 10  2
  8 11  1
  8 12  2
  9 13  1
 14 10  1
 11 15  2
 13 16  1
 14 17  1  6  0
 14 18  1
 16 19  2
 16 20  1
 17 21  1
 17 22  1
 19 23  1
 20 24  2
 21 25  1
 23 26  2
 27 23  1
 25 28  1
 27 29  1
 27 30  1  6  0
 29 31  1
 31 32  2
 31 33  1
 32 34  1
 33 35  1
 33 36  1
 10 12  1
 11 13  1
 22 25  1
 24 26  1
 34 35  2
M  END
> <COMPOUND_NAMES>
Example 405 (Stereo) (Page No: 574)

> <Reference>
WO2019148005

> <IC50_range_nM>
<100

> <smiles>
C[C@@H](Cc1nncn1C)c1cccc(c1)N1Cc2c(cc(cc2C(F)(F)F)[C@H](C)N2CC(C2)O)C1=O

$$$$
C26H28F3N5O2
  MOLSOFT 03092310482D

 36 40  0  0  1  0  0  0  0  0999 V2000
    0.0000   -0.0000    0.0000 F   0  0  0
    1.1052    1.0111    0.0000 C   0  0  0
    2.0927   -0.0941    0.0000 F   0  0  0
    2.2103    2.0222    0.0000 F   0  0  0
    0.0941    2.1398    0.0000 C   0  0  0
   -1.3873    1.8341    0.0000 C   0  0  0
    0.5408    3.5741    0.0000 C   0  0  0
   -2.3984    2.9628    0.0000 C   0  0  0
   -2.1515    0.5408    0.0000 C   0  0  0
   -0.4703    4.7028    0.0000 C   0  0  0
   -3.7858    2.3632    0.0000 C   0  0  0
   -1.9517    4.3971    0.0000 C   0  0  0
   -3.6329    0.8700    0.0000 N   0  0  0
   -0.0235    6.1372    0.0000 C   0  0  0
   -5.1025    3.1274    0.0000 O   0  0  0
   -4.7616   -0.1176    0.0000 C   0  0  0
    1.4344    6.4664    0.0000 N   0  0  0
   -4.4559   -1.5754    0.0000 C   0  0  0
   -6.1959    0.3527    0.0000 C   0  0  0
    2.2456    7.7361    0.0000 C   0  0  0
    2.6806    5.6551    0.0000 C   0  0  0
   -5.5846   -2.5630    0.0000 C   0  0  0
   -7.3246   -0.6349    0.0000 C   0  0  0
    3.4918    6.9249    0.0000 C   0  0  0
   -7.0189   -2.0927    0.0000 C   0  0  0
   -5.2789   -4.0209    0.0000 C   0  0  1
    4.5970    7.9360    0.0000 O   0  0  0
    4.9027    6.4781    0.0000 C   0  0  0
   -3.8681   -4.4677    0.0000 C   0  0  0
   -6.4076   -5.0085    0.0000 C   0  0  0
   -3.5624   -5.9255    0.0000 C   0  0  0
   -2.1986   -6.5251    0.0000 N   0  0  0
   -4.5735   -7.0307    0.0000 N   0  0  0
   -2.3632   -8.0065    0.0000 N   0  0  0
   -3.8328   -8.3122    0.0000 C   0  0  0
   -6.0784   -6.8661    0.0000 C   0  0  0
  1  2  1
  2  3  1
  2  4  1
  2  5  1
  5  6  2
  5  7  1
  6  8  1
  6  9  1
  7 10  2
  8 11  1
  8 12  2
  9 13  1
 10 14  1
 11 15  2
 13 16  1
 14 17  1
 16 18  2
 16 19  1
 17 20  1
 17 21  1
 18 22  1
 19 23  2
 20 24  1
 22 25  2
 26 22  1
 24 27  1
 24 28  1
 26 29  1
 26 30  1  1  0
 29 31  1
 31 32  2
 31 33  1
 32 34  1
 33 35  1
 33 36  1
 10 12  1
 11 13  1
 21 24  1
 23 25  1
 34 35  2
M  END
> <COMPOUND_NAMES>
Example 397 (R) (Page No: 569)

> <Reference>
WO2019148005

> <IC50_range_nM>
<100

> <smiles>
C[C@H](Cc1nncn1C)c1cccc(c1)N1Cc2c(cc(CN3CC(C)(C3)O)cc2C(F)(F)F)C1=O

$$$$
C25H24F3N5O3
  MOLSOFT 03092310482D

 36 40  0  0  1  0  0  0  0  0999 V2000
    0.0000   -0.0000    0.0000 F   0  0  0
    1.1046    1.0106    0.0000 C   0  0  0
    2.0916   -0.0940    0.0000 F   0  0  0
    2.2091    2.0211    0.0000 F   0  0  0
    0.0940    2.1386    0.0000 C   0  0  0
   -1.3866    1.8331    0.0000 C   0  0  0
    0.5405    3.5722    0.0000 C   0  0  0
   -2.3971    2.9612    0.0000 C   0  0  0
   -2.1504    0.5405    0.0000 C   0  0  0
   -0.4700    4.7003    0.0000 C   0  0  0
   -3.7837    2.3619    0.0000 C   0  0  0
   -1.9506    4.3948    0.0000 C   0  0  0
   -3.6310    0.8696    0.0000 N   0  0  0
   -0.0235    6.1339    0.0000 C   0  0  0
   -5.0998    3.1257    0.0000 O   0  0  0
   -4.7590   -0.1175    0.0000 C   0  0  0
   -1.0341    7.2619    0.0000 O   0  0  0
    1.4336    6.4629    0.0000 N   0  0  0
   -4.4535   -1.5746    0.0000 C   0  0  0
   -6.1926    0.3525    0.0000 C   0  0  0
    2.2444    7.7320    0.0000 C   0  0  0
    2.6792    5.6521    0.0000 C   0  0  0
   -5.5816   -2.5617    0.0000 C   0  0  0
   -7.3207   -0.6345    0.0000 C   0  0  0
    3.4900    6.9212    0.0000 C   0  0  0
   -7.0152   -2.0916    0.0000 C   0  0  0
   -5.2761   -4.0187    0.0000 C   0  0  1
    4.9471    7.2502    0.0000 O   0  0  0
   -3.8660   -4.4653    0.0000 C   0  0  0
   -6.4041   -5.0058    0.0000 C   0  0  0
   -3.5605   -5.9224    0.0000 C   0  0  0
   -2.1974   -6.5217    0.0000 N   0  0  0
   -4.5710   -7.0269    0.0000 N   0  0  0
   -2.3619   -8.0022    0.0000 N   0  0  0
   -3.8307   -8.3078    0.0000 C   0  0  0
   -6.0751   -6.8624    0.0000 C   0  0  0
  1  2  1
  2  3  1
  2  4  1
  2  5  1
  5  6  2
  5  7  1
  6  8  1
  6  9  1
  7 10  2
  8 11  1
  8 12  2
  9 13  1
 10 14  1
 11 15  2
 13 16  1
 14 17  2
 14 18  1
 16 19  2
 16 20  1
 18 21  1
 18 22  1
 19 23  1
 20 24  2
 21 25  1
 23 26  2
 27 23  1
 25 28  1
 27 29  1
 27 30  1  1  0
 29 31  1
 31 32  2
 31 33  1
 32 34  1
 33 35  1
 33 36  1
 10 12  1
 11 13  1
 22 25  1
 24 26  1
 34 35  2
M  END
> <COMPOUND_NAMES>
Example 276 (R) (Page No: 484)

> <Reference>
WO2019148005

> <IC50_range_nM>
<100

> <smiles>
C[C@H](Cc1nncn1C)c1cccc(c1)N1Cc2c(cc(cc2C(F)(F)F)C(N2CC(C2)O)=O)C1=O

$$$$
C25H25F4N5O
  MOLSOFT 03092310482D

 35 39  0  0  1  0  0  0  0  0999 V2000
    0.0000   -0.0000    0.0000 F   0  0  0
    1.1048    1.0108    0.0000 C   0  0  0
    2.0921   -0.0940    0.0000 F   0  0  0
    2.2097    2.0216    0.0000 F   0  0  0
    0.0940    2.1392    0.0000 C   0  0  0
   -1.3869    1.8336    0.0000 C   0  0  0
    0.5407    3.5731    0.0000 C   0  0  0
   -2.3977    2.9619    0.0000 C   0  0  0
   -2.1509    0.5407    0.0000 C   0  0  0
   -0.4701    4.7015    0.0000 C   0  0  0
   -3.7847    2.3625    0.0000 C   0  0  0
   -1.9511    4.3959    0.0000 C   0  0  0
   -3.6319    0.8698    0.0000 N   0  0  0
   -0.0235    6.1354    0.0000 C   0  0  0
   -5.1011    3.1265    0.0000 O   0  0  0
   -4.7602   -0.1175    0.0000 C   0  0  0
    1.4339    6.4645    0.0000 N   0  0  0
   -4.4546   -1.5750    0.0000 C   0  0  0
   -6.1942    0.3526    0.0000 C   0  0  0
    2.2449    7.7339    0.0000 C   0  0  0
    2.6798    5.6535    0.0000 C   0  0  0
   -5.5830   -2.5623    0.0000 C   0  0  0
   -7.3225   -0.6347    0.0000 C   0  0  0
    3.4908    6.9229    0.0000 C   0  0  0
   -7.0169   -2.0921    0.0000 C   0  0  0
   -5.2774   -4.0197    0.0000 C   0  0  1
    4.9483    7.2520    0.0000 F   0  0  0
   -3.8669   -4.4664    0.0000 C   0  0  0
   -6.4057   -5.0071    0.0000 C   0  0  0
   -3.5614   -5.9238    0.0000 C   0  0  0
   -2.1979   -6.5233    0.0000 N   0  0  0
   -4.5722   -7.0287    0.0000 N   0  0  0
   -2.3625   -8.0042    0.0000 N   0  0  0
   -3.8317   -8.3098    0.0000 C   0  0  0
   -6.0766   -6.8641    0.0000 C   0  0  0
  1  2  1
  2  3  1
  2  4  1
  2  5  1
  5  6  2
  5  7  1
  6  8  1
  6  9  1
  7 10  2
  8 11  1
  8 12  2
  9 13  1
 10 14  1
 11 15  2
 13 16  1
 14 17  1
 16 18  2
 16 19  1
 17 20  1
 17 21  1
 18 22  1
 19 23  2
 20 24  1
 22 25  2
 26 22  1
 24 27  1
 26 28  1
 26 29  1  1  0
 28 30  1
 30 31  2
 30 32  1
 31 33  1
 32 34  1
 32 35  1
 10 12  1
 11 13  1
 21 24  1
 23 25  1
 33 34  2
M  END
> <COMPOUND_NAMES>
Example 401 (R) (Page No: 571)

> <Reference>
WO2019148005

> <IC50_range_nM>
<100

> <smiles>
C[C@H](Cc1nncn1C)c1cccc(c1)N1Cc2c(cc(CN3CC(C3)F)cc2C(F)(F)F)C1=O

$$$$
C25H24F5N5O
  MOLSOFT 03092310482D

 36 40  0  0  1  0  0  0  0  0999 V2000
    0.0000   -0.0000    0.0000 F   0  0  0
   -1.4361    0.4708    0.0000 C   0  0  0
   -0.3296    1.4831    0.0000 F   0  0  0
   -2.7073    1.3066    0.0000 C   0  0  0
   -2.2718   -0.7769    0.0000 C   0  0  0
   -3.5431    0.0589    0.0000 N   0  0  0
   -5.0262   -0.2472    0.0000 C   0  0  0
   -5.4970   -1.6597    0.0000 C   0  0  0
   -4.5083   -2.7662    0.0000 C   0  0  0
   -6.9802   -1.9657    0.0000 C   0  0  0
   -4.9791   -4.1787    0.0000 C   0  0  0
   -7.4510   -3.3783    0.0000 C   0  0  0
   -6.4623   -4.4847    0.0000 C   0  0  0
   -3.9904   -5.2852    0.0000 C   0  0  0
   -8.8400   -3.9786    0.0000 C   0  0  0
   -7.2274   -5.7795    0.0000 C   0  0  0
   -5.1204   -6.2739    0.0000 F   0  0  0
   -3.0016   -6.3916    0.0000 F   0  0  0
   -2.8839   -4.2729    0.0000 F   0  0  0
  -10.1583   -3.2135    0.0000 O   0  0  0
   -8.6987   -5.4617    0.0000 N   0  0  0
   -9.8287   -6.4505    0.0000 C   0  0  0
   -9.5227   -7.9101    0.0000 C   0  0  0
  -11.2648   -5.9796    0.0000 C   0  0  0
  -10.6527   -8.8988    0.0000 C   0  0  0
  -12.3948   -6.9684    0.0000 C   0  0  0
  -12.0888   -8.4280    0.0000 C   0  0  0
  -10.3467  -10.3584    0.0000 C   0  0  1
   -8.9341  -10.8057    0.0000 C   0  0  0
  -11.4767  -11.3472    0.0000 C   0  0  0
   -8.6281  -12.2653    0.0000 C   0  0  0
   -7.2627  -12.8656    0.0000 N   0  0  0
   -9.6404  -13.3718    0.0000 N   0  0  0
   -7.4275  -14.3488    0.0000 N   0  0  0
   -8.8988  -14.6548    0.0000 C   0  0  0
  -11.1471  -13.2070    0.0000 C   0  0  0
  1  2  1
  2  3  1
  2  4  1
  2  5  1
  4  6  1
  6  7  1
  7  8  1
  8  9  2
  8 10  1
  9 11  1
 10 12  2
 11 13  2
 11 14  1
 12 15  1
 13 16  1
 14 17  1
 14 18  1
 14 19  1
 15 20  2
 15 21  1
 21 22  1
 22 23  2
 22 24  1
 23 25  1
 24 26  2
 25 27  2
 28 25  1
 28 29  1
 28 30  1  1  0
 29 31  1
 31 32  2
 31 33  1
 32 34  1
 33 35  1
 33 36  1
  5  6  1
 12 13  1
 16 21  1
 26 27  1
 34 35  2
M  END
> <COMPOUND_NAMES>
Example 402 (R) (Page No: 572)

> <Reference>
WO2019148005

> <IC50_range_nM>
<100

> <smiles>
C[C@H](Cc1nncn1C)c1cccc(c1)N1Cc2c(cc(CN3CC(C3)(F)F)cc2C(F)(F)F)C1=O

$$$$
C26H28F3N5O2
  MOLSOFT 03092310482D

 36 40  0  0  1  0  0  0  0  0999 V2000
    0.0000   -0.0000    0.0000 F   0  0  0
    1.1052    1.0111    0.0000 C   0  0  0
    2.0928   -0.0941    0.0000 F   0  0  0
    2.2104    2.0222    0.0000 F   0  0  0
    0.0941    2.1398    0.0000 C   0  0  0
   -1.3873    1.8341    0.0000 C   0  0  0
    0.5408    3.5742    0.0000 C   0  0  0
   -2.3985    2.9628    0.0000 C   0  0  0
   -2.1516    0.5408    0.0000 C   0  0  0
   -0.4703    4.7029    0.0000 C   0  0  0
   -3.7858    2.3632    0.0000 C   0  0  0
   -1.9517    4.3972    0.0000 C   0  0  0
   -3.6330    0.8700    0.0000 N   0  0  0
   -0.0235    6.1372    0.0000 C   0  0  0
   -5.1026    3.1274    0.0000 O   0  0  0
   -4.7617   -0.1176    0.0000 C   0  0  0
    1.4344    6.4665    0.0000 N   0  0  0
   -4.4560   -1.5755    0.0000 C   0  0  0
   -6.1960    0.3527    0.0000 C   0  0  0
    2.5396    5.4788    0.0000 C   0  0  0
    2.0340    7.8538    0.0000 C   0  0  0
   -5.5847   -2.5631    0.0000 C   0  0  0
   -7.3247   -0.6349    0.0000 C   0  0  0
    3.8211    6.2431    0.0000 C   0  0  2
    3.5154    7.7127    0.0000 C   0  0  0
   -7.0190   -2.0928    0.0000 C   0  0  0
   -5.2790   -4.0210    0.0000 C   0  0  1
    5.1849    5.6434    0.0000 O   0  0  0
   -3.8681   -4.4677    0.0000 C   0  0  0
   -6.4077   -5.0086    0.0000 C   0  0  0
   -3.5624   -5.9256    0.0000 C   0  0  0
   -2.1986   -6.5252    0.0000 N   0  0  0
   -4.5735   -7.0308    0.0000 N   0  0  0
   -2.3632   -8.0066    0.0000 N   0  0  0
   -3.8328   -8.3123    0.0000 C   0  0  0
   -6.0785   -6.8662    0.0000 C   0  0  0
  1  2  1
  2  3  1
  2  4  1
  2  5  1
  5  6  2
  5  7  1
  6  8  1
  6  9  1
  7 10  2
  8 11  1
  8 12  2
  9 13  1
 10 14  1
 11 15  2
 13 16  1
 14 17  1
 16 18  2
 16 19  1
 17 20  1
 17 21  1
 18 22  1
 19 23  2
 24 20  1
 21 25  1
 22 26  2
 27 22  1
 24 28  1  6  0
 27 29  1
 27 30  1  1  0
 29 31  1
 31 32  2
 31 33  1
 32 34  1
 33 35  1
 33 36  1
 10 12  1
 11 13  1
 23 26  1
 24 25  1
 34 35  2
M  END
> <COMPOUND_NAMES>
Example 394 (Stereo) (Page No: 567)

> <Reference>
WO2019148005

> <IC50_range_nM>
<100

> <smiles>
C[C@H](Cc1nncn1C)c1cccc(c1)N1Cc2c(cc(CN3CC[C@@H](C3)O)cc2C(F)(F)F)C1=O

$$$$
C27H30F3N5O2
  MOLSOFT 03092310482D

 37 41  0  0  1  0  0  0  0  0999 V2000
    0.0000   -0.0000    0.0000 F   0  0  0
    1.1049    1.0109    0.0000 C   0  0  0
    2.0923   -0.0940    0.0000 F   0  0  0
    2.2098    2.0217    0.0000 F   0  0  0
    0.0940    2.1393    0.0000 C   0  0  0
   -1.3870    1.8337    0.0000 C   0  0  0
    0.5407    3.5733    0.0000 C   0  0  0
   -2.3979    2.9621    0.0000 C   0  0  0
   -2.1510    0.5407    0.0000 C   0  0  0
   -0.4702    4.7017    0.0000 C   0  0  0
   -3.7849    2.3626    0.0000 C   0  0  0
   -1.9512    4.3961    0.0000 C   0  0  0
   -3.6321    0.8698    0.0000 N   0  0  0
   -0.0235    6.1357    0.0000 C   0  0  3
   -5.1013    3.1266    0.0000 O   0  0  0
   -4.7605   -0.1175    0.0000 C   0  0  0
    1.4340    6.4648    0.0000 N   0  0  0
   -1.0344    7.2641    0.0000 C   0  0  0
   -4.4549   -1.5751    0.0000 C   0  0  0
   -6.1945    0.3526    0.0000 C   0  0  0
    2.5389    5.4775    0.0000 C   0  0  0
    2.0335    7.8518    0.0000 C   0  0  0
   -5.5833   -2.5624    0.0000 C   0  0  0
   -7.3229   -0.6347    0.0000 C   0  0  0
    3.8201    6.2415    0.0000 C   0  0  2
    3.5145    7.7108    0.0000 C   0  0  0
   -7.0173   -2.0923    0.0000 C   0  0  0
   -5.2777   -4.0200    0.0000 C   0  0  1
    5.1836    5.6420    0.0000 O   0  0  0
   -3.8671   -4.4666    0.0000 C   0  0  0
   -6.4061   -5.0073    0.0000 C   0  0  0
   -3.5615   -5.9241    0.0000 C   0  0  0
   -2.1980   -6.5236    0.0000 N   0  0  0
   -4.5724   -7.0290    0.0000 N   0  0  0
   -2.3626   -8.0046    0.0000 N   0  0  0
   -3.8319   -8.3103    0.0000 C   0  0  0
   -6.0769   -6.8645    0.0000 C   0  0  0
  1  2  1
  2  3  1
  2  4  1
  2  5  1
  5  6  2
  5  7  1
  6  8  1
  6  9  1
  7 10  2
  8 11  1
  8 12  2
  9 13  1
 14 10  1
 11 15  2
 13 16  1
 14 17  1
 14 18  1
 16 19  2
 16 20  1
 17 21  1
 17 22  1
 19 23  1
 20 24  2
 25 21  1
 22 26  1
 23 27  2
 28 23  1
 25 29  1  6  0
 28 30  1
 28 31  1  1  0
 30 32  1
 32 33  2
 32 34  1
 33 35  1
 34 36  1
 34 37  1
 10 12  1
 11 13  1
 24 27  1
 25 26  1
 35 36  2
M  END
> <COMPOUND_NAMES>
Example 416 (Stereo) (Page No: 580)

> <Reference>
WO2019148005

> <IC50_range_nM>
<100

> <smiles>
CC(c1cc2C(N(Cc2c(c1)C(F)(F)F)c1cccc(c1)[C@H](C)Cc1nncn1C)=O)N1CC[C@@H](C1)O

$$$$
C27H30F3N5O2
  MOLSOFT 03092310482D

 37 41  0  0  1  0  0  0  0  0999 V2000
    0.0000   -0.0000    0.0000 F   0  0  0
    1.1055    1.0114    0.0000 C   0  0  0
    2.0934   -0.0941    0.0000 F   0  0  0
    2.2110    2.0228    0.0000 F   0  0  0
    0.0941    2.1404    0.0000 C   0  0  0
   -1.3877    1.8346    0.0000 C   0  0  0
    0.5410    3.5752    0.0000 C   0  0  0
   -2.3992    2.9637    0.0000 C   0  0  0
   -2.1522    0.5410    0.0000 C   0  0  0
   -0.4704    4.7042    0.0000 C   0  0  0
   -3.7869    2.3639    0.0000 C   0  0  0
   -1.9523    4.3985    0.0000 C   0  0  0
   -3.6340    0.8703    0.0000 N   0  0  0
   -0.0235    6.1390    0.0000 C   0  0  0
   -5.1041    3.1283    0.0000 O   0  0  0
   -4.7630   -0.1176    0.0000 C   0  0  0
    1.4348    6.4683    0.0000 N   0  0  0
   -4.4573   -1.5759    0.0000 C   0  0  0
   -6.1978    0.3528    0.0000 C   0  0  0
    2.5403    5.4804    0.0000 C   0  0  0
    2.0346    7.8561    0.0000 C   0  0  0
   -5.5863   -2.5638    0.0000 C   0  0  0
   -7.3268   -0.6351    0.0000 C   0  0  0
    3.8222    6.2449    0.0000 C   0  0  2
    3.5164    7.7149    0.0000 C   0  0  0
   -7.0211   -2.0934    0.0000 C   0  0  0
   -5.2805   -4.0221    0.0000 C   0  0  1
    5.3040    6.4095    0.0000 O   0  0  0
    4.6925    5.0453    0.0000 C   0  0  0
   -3.8692   -4.4690    0.0000 C   0  0  0
   -6.4095   -5.0100    0.0000 C   0  0  0
   -3.5635   -5.9273    0.0000 C   0  0  0
   -2.1992   -6.5271    0.0000 N   0  0  0
   -4.5749   -7.0328    0.0000 N   0  0  0
   -2.3639   -8.0089    0.0000 N   0  0  0
   -3.8339   -8.3147    0.0000 C   0  0  0
   -6.0802   -6.8682    0.0000 C   0  0  0
  1  2  1
  2  3  1
  2  4  1
  2  5  1
  5  6  2
  5  7  1
  6  8  1
  6  9  1
  7 10  2
  8 11  1
  8 12  2
  9 13  1
 10 14  1
 11 15  2
 13 16  1
 14 17  1
 16 18  2
 16 19  1
 17 20  1
 17 21  1
 18 22  1
 19 23  2
 24 20  1
 21 25  1
 22 26  2
 27 22  1
 24 28  1  6  0
 24 29  1
 27 30  1
 27 31  1  1  0
 30 32  1
 32 33  2
 32 34  1
 33 35  1
 34 36  1
 34 37  1
 10 12  1
 11 13  1
 23 26  1
 24 25  1
 35 36  2
M  END
> <COMPOUND_NAMES>
Example 398 (Stereo) (Page No: 570)

> <Reference>
WO2019148005

> <IC50_range_nM>
<100

> <smiles>
C[C@H](Cc1nncn1C)c1cccc(c1)N1Cc2c(cc(CN3CC[C@@](C)(C3)O)cc2C(F)(F)F)C1=O

$$$$
C26H26F3N5O3
  MOLSOFT 03092310482D

 37 41  0  0  1  0  0  0  0  0999 V2000
    0.0000   -0.0000    0.0000 F   0  0  0
    1.1049    1.0109    0.0000 C   0  0  0
    2.0923   -0.0940    0.0000 F   0  0  0
    2.2098    2.0217    0.0000 F   0  0  0
    0.0940    2.1393    0.0000 C   0  0  0
   -1.3870    1.8337    0.0000 C   0  0  0
    0.5407    3.5733    0.0000 C   0  0  0
   -2.3979    2.9621    0.0000 C   0  0  0
   -2.1510    0.5407    0.0000 C   0  0  0
   -0.4702    4.7017    0.0000 C   0  0  0
   -3.7849    2.3626    0.0000 C   0  0  0
   -1.9512    4.3961    0.0000 C   0  0  0
   -3.6321    0.8698    0.0000 N   0  0  0
   -0.0235    6.1357    0.0000 C   0  0  0
   -5.1013    3.1266    0.0000 O   0  0  0
   -4.7605   -0.1175    0.0000 C   0  0  0
   -1.0344    7.2641    0.0000 O   0  0  0
    1.4340    6.4648    0.0000 N   0  0  0
   -4.4549   -1.5751    0.0000 C   0  0  0
   -6.1945    0.3526    0.0000 C   0  0  0
    2.5389    5.4775    0.0000 C   0  0  0
    2.0335    7.8518    0.0000 C   0  0  0
   -5.5833   -2.5624    0.0000 C   0  0  0
   -7.3229   -0.6347    0.0000 C   0  0  0
    3.8201    6.2415    0.0000 C   0  0  2
    3.5145    7.7108    0.0000 C   0  0  0
   -7.0173   -2.0923    0.0000 C   0  0  0
   -5.2777   -4.0200    0.0000 C   0  0  1
    5.1836    5.6420    0.0000 O   0  0  0
   -3.8671   -4.4666    0.0000 C   0  0  0
   -6.4061   -5.0073    0.0000 C   0  0  0
   -3.5615   -5.9241    0.0000 C   0  0  0
   -2.1980   -6.5236    0.0000 N   0  0  0
   -4.5724   -7.0290    0.0000 N   0  0  0
   -2.3626   -8.0046    0.0000 N   0  0  0
   -3.8319   -8.3103    0.0000 C   0  0  0
   -6.0769   -6.8645    0.0000 C   0  0  0
  1  2  1
  2  3  1
  2  4  1
  2  5  1
  5  6  2
  5  7  1
  6  8  1
  6  9  1
  7 10  2
  8 11  1
  8 12  2
  9 13  1
 10 14  1
 11 15  2
 13 16  1
 14 17  2
 14 18  1
 16 19  2
 16 20  1
 18 21  1
 18 22  1
 19 23  1
 20 24  2
 25 21  1
 22 26  1
 23 27  2
 28 23  1
 25 29  1  6  0
 28 30  1
 28 31  1  1  0
 30 32  1
 32 33  2
 32 34  1
 33 35  1
 34 36  1
 34 37  1
 10 12  1
 11 13  1
 24 27  1
 25 26  1
 35 36  2
M  END
> <COMPOUND_NAMES>
Example 274 (Stereo) (Page No: 483)

> <Reference>
WO2019148005

> <IC50_range_nM>
<100

> <smiles>
C[C@H](Cc1nncn1C)c1cccc(c1)N1Cc2c(cc(cc2C(F)(F)F)C(N2CC[C@@H](C2)O)=O)C1=O

$$$$
C27H28F3N5O3
  MOLSOFT 03092310482D

 38 42  0  0  1  0  0  0  0  0999 V2000
    0.0000   -0.0000    0.0000 F   0  0  0
    1.1049    1.0109    0.0000 C   0  0  0
    2.0923   -0.0940    0.0000 F   0  0  0
    2.2098    2.0217    0.0000 F   0  0  0
    0.0940    2.1393    0.0000 C   0  0  0
   -1.3870    1.8337    0.0000 C   0  0  0
    0.5407    3.5733    0.0000 C   0  0  0
   -2.3979    2.9621    0.0000 C   0  0  0
   -2.1510    0.5407    0.0000 C   0  0  0
   -0.4702    4.7017    0.0000 C   0  0  0
   -3.7849    2.3626    0.0000 C   0  0  0
   -1.9512    4.3961    0.0000 C   0  0  0
   -3.6321    0.8698    0.0000 N   0  0  0
   -0.0235    6.1357    0.0000 C   0  0  0
   -5.1013    3.1266    0.0000 O   0  0  0
   -4.7605   -0.1175    0.0000 C   0  0  0
   -1.0344    7.2641    0.0000 O   0  0  0
    1.4340    6.4648    0.0000 N   0  0  0
   -4.4549   -1.5751    0.0000 C   0  0  0
   -6.1945    0.3526    0.0000 C   0  0  0
    2.5389    5.4775    0.0000 C   0  0  1
    2.0335    7.8518    0.0000 C   0  0  0
   -5.5833   -2.5624    0.0000 C   0  0  0
   -7.3229   -0.6347    0.0000 C   0  0  0
    3.8201    6.2415    0.0000 C   0  0  0
    2.3744    3.9964    0.0000 C   0  0  0
    3.5145    7.7108    0.0000 C   0  0  2
   -7.0173   -2.0923    0.0000 C   0  0  0
   -5.2776   -4.0199    0.0000 C   0  0  1
    4.5019    8.8392    0.0000 O   0  0  0
   -3.8671   -4.4666    0.0000 C   0  0  0
   -6.4061   -5.0073    0.0000 C   0  0  0
   -3.5615   -5.9241    0.0000 C   0  0  0
   -2.1980   -6.5236    0.0000 N   0  0  0
   -4.5724   -7.0290    0.0000 N   0  0  0
   -2.3626   -8.0046    0.0000 N   0  0  0
   -3.8319   -8.3102    0.0000 C   0  0  0
   -6.0769   -6.8645    0.0000 C   0  0  0
  1  2  1
  2  3  1
  2  4  1
  2  5  1
  5  6  2
  5  7  1
  6  8  1
  6  9  1
  7 10  2
  8 11  1
  8 12  2
  9 13  1
 10 14  1
 11 15  2
 13 16  1
 14 17  2
 14 18  1
 16 19  2
 16 20  1
 21 18  1
 18 22  1
 19 23  1
 20 24  2
 21 25  1
 21 26  1  1  0
 27 22  1
 23 28  2
 29 23  1
 27 30  1  1  0
 29 31  1
 29 32  1  1  0
 31 33  1
 33 34  2
 33 35  1
 34 36  1
 35 37  1
 35 38  1
 10 12  1
 11 13  1
 24 28  1
 27 25  1
 36 37  2
M  END
> <COMPOUND_NAMES>
Example 275 (Stereo) (Page No: 483)

> <Reference>
WO2019148005

> <IC50_range_nM>
<100

> <smiles>
C[C@H](Cc1nncn1C)c1cccc(c1)N1Cc2c(cc(cc2C(F)(F)F)C(N2C[C@H](C[C@H]2C)O)=O)C1=O

$$$$
C26H27F4N5O
  MOLSOFT 03092310482D

 36 40  0  0  1  0  0  0  0  0999 V2000
    0.0000   -0.0000    0.0000 F   0  0  0
    1.1052    1.0111    0.0000 C   0  0  0
    2.0928   -0.0941    0.0000 F   0  0  0
    2.2104    2.0222    0.0000 F   0  0  0
    0.0941    2.1398    0.0000 C   0  0  0
   -1.3873    1.8341    0.0000 C   0  0  0
    0.5408    3.5742    0.0000 C   0  0  0
   -2.3985    2.9628    0.0000 C   0  0  0
   -2.1516    0.5408    0.0000 C   0  0  0
   -0.4703    4.7029    0.0000 C   0  0  0
   -3.7858    2.3632    0.0000 C   0  0  0
   -1.9517    4.3972    0.0000 C   0  0  0
   -3.6330    0.8700    0.0000 N   0  0  0
   -0.0235    6.1372    0.0000 C   0  0  0
   -5.1026    3.1274    0.0000 O   0  0  0
   -4.7617   -0.1176    0.0000 C   0  0  0
    1.4344    6.4665    0.0000 N   0  0  0
   -4.4560   -1.5755    0.0000 C   0  0  0
   -6.1960    0.3527    0.0000 C   0  0  0
    2.5396    5.4788    0.0000 C   0  0  0
    2.0340    7.8538    0.0000 C   0  0  0
   -5.5847   -2.5631    0.0000 C   0  0  0
   -7.3247   -0.6349    0.0000 C   0  0  0
    3.8211    6.2431    0.0000 C   0  0  2
    3.5154    7.7127    0.0000 C   0  0  0
   -7.0190   -2.0928    0.0000 C   0  0  0
   -5.2790   -4.0210    0.0000 C   0  0  1
    5.1849    5.6434    0.0000 F   0  0  0
   -3.8681   -4.4677    0.0000 C   0  0  0
   -6.4077   -5.0086    0.0000 C   0  0  0
   -3.5624   -5.9256    0.0000 C   0  0  0
   -2.1986   -6.5252    0.0000 N   0  0  0
   -4.5735   -7.0308    0.0000 N   0  0  0
   -2.3632   -8.0066    0.0000 N   0  0  0
   -3.8328   -8.3123    0.0000 C   0  0  0
   -6.0785   -6.8662    0.0000 C   0  0  0
  1  2  1
  2  3  1
  2  4  1
  2  5  1
  5  6  2
  5  7  1
  6  8  1
  6  9  1
  7 10  2
  8 11  1
  8 12  2
  9 13  1
 10 14  1
 11 15  2
 13 16  1
 14 17  1
 16 18  2
 16 19  1
 17 20  1
 17 21  1
 18 22  1
 19 23  2
 24 20  1
 21 25  1
 22 26  2
 27 22  1
 24 28  1  6  0
 27 29  1
 27 30  1  1  0
 29 31  1
 31 32  2
 31 33  1
 32 34  1
 33 35  1
 33 36  1
 10 12  1
 11 13  1
 23 26  1
 24 25  1
 34 35  2
M  END
> <COMPOUND_NAMES>
Example 399 (Stereo) (Page No: 570)

> <Reference>
WO2019148005

> <IC50_range_nM>
<100

> <smiles>
C[C@H](Cc1nncn1C)c1cccc(c1)N1Cc2c(cc(CN3CC[C@@H](C3)F)cc2C(F)(F)F)C1=O

$$$$
C26H27F4N5O
  MOLSOFT 03092310482D

 36 40  0  0  1  0  0  0  0  0999 V2000
    0.0000   -0.0000    0.0000 F   0  0  0
    1.1052    1.0111    0.0000 C   0  0  0
    2.0928   -0.0941    0.0000 F   0  0  0
    2.2104    2.0222    0.0000 F   0  0  0
    0.0941    2.1398    0.0000 C   0  0  0
   -1.3873    1.8341    0.0000 C   0  0  0
    0.5408    3.5742    0.0000 C   0  0  0
   -2.3985    2.9628    0.0000 C   0  0  0
   -2.1516    0.5408    0.0000 C   0  0  0
   -0.4703    4.7029    0.0000 C   0  0  0
   -3.7858    2.3632    0.0000 C   0  0  0
   -1.9517    4.3972    0.0000 C   0  0  0
   -3.6330    0.8700    0.0000 N   0  0  0
   -0.0235    6.1372    0.0000 C   0  0  0
   -5.1026    3.1274    0.0000 O   0  0  0
   -4.7617   -0.1176    0.0000 C   0  0  0
    1.4344    6.4665    0.0000 N   0  0  0
   -4.4560   -1.5755    0.0000 C   0  0  0
   -6.1960    0.3527    0.0000 C   0  0  0
    2.5396    5.4788    0.0000 C   0  0  0
    2.0340    7.8538    0.0000 C   0  0  0
   -5.5847   -2.5631    0.0000 C   0  0  0
   -7.3247   -0.6349    0.0000 C   0  0  0
    3.8211    6.2431    0.0000 C   0  0  2
    3.5154    7.7127    0.0000 C   0  0  0
   -7.0190   -2.0928    0.0000 C   0  0  0
   -5.2790   -4.0210    0.0000 C   0  0  2
    5.1849    5.6434    0.0000 F   0  0  0
   -3.8681   -4.4677    0.0000 C   0  0  0
   -6.4077   -5.0086    0.0000 C   0  0  0
   -3.5624   -5.9256    0.0000 C   0  0  0
   -2.1986   -6.5252    0.0000 N   0  0  0
   -4.5735   -7.0308    0.0000 N   0  0  0
   -2.3632   -8.0066    0.0000 N   0  0  0
   -3.8328   -8.3123    0.0000 C   0  0  0
   -6.0785   -6.8662    0.0000 C   0  0  0
  1  2  1
  2  3  1
  2  4  1
  2  5  1
  5  6  2
  5  7  1
  6  8  1
  6  9  1
  7 10  2
  8 11  1
  8 12  2
  9 13  1
 10 14  1
 11 15  2
 13 16  1
 14 17  1
 16 18  2
 16 19  1
 17 20  1
 17 21  1
 18 22  1
 19 23  2
 24 20  1
 21 25  1
 22 26  2
 27 22  1
 24 28  1  6  0
 27 29  1
 27 30  1  6  0
 29 31  1
 31 32  2
 31 33  1
 32 34  1
 33 35  1
 33 36  1
 10 12  1
 11 13  1
 23 26  1
 24 25  1
 34 35  2
M  END
> <COMPOUND_NAMES>
Example 400 (Stereo) (Page No: 570)

> <Reference>
WO2019148005

> <IC50_range_nM>
<100

> <smiles>
C[C@@H](Cc1nncn1C)c1cccc(c1)N1Cc2c(cc(CN3CC[C@@H](C3)F)cc2C(F)(F)F)C1=O

$$$$
C27H29F4N5O
  MOLSOFT 03092310482D

 37 41  0  0  1  0  0  0  0  0999 V2000
    0.0000   -0.0000    0.0000 F   0  0  0
    1.1049    1.0109    0.0000 C   0  0  0
    2.0923   -0.0940    0.0000 F   0  0  0
    2.2098    2.0217    0.0000 F   0  0  0
    0.0940    2.1393    0.0000 C   0  0  0
   -1.3870    1.8337    0.0000 C   0  0  0
    0.5407    3.5733    0.0000 C   0  0  0
   -2.3979    2.9621    0.0000 C   0  0  0
   -2.1510    0.5407    0.0000 C   0  0  0
   -0.4702    4.7017    0.0000 C   0  0  0
   -3.7849    2.3626    0.0000 C   0  0  0
   -1.9512    4.3961    0.0000 C   0  0  0
   -3.6321    0.8698    0.0000 N   0  0  0
   -0.0235    6.1357    0.0000 C   0  0  1
   -5.1013    3.1266    0.0000 O   0  0  0
   -4.7605   -0.1175    0.0000 C   0  0  0
    1.4340    6.4648    0.0000 N   0  0  0
   -1.0344    7.2641    0.0000 C   0  0  0
   -4.4549   -1.5751    0.0000 C   0  0  0
   -6.1945    0.3526    0.0000 C   0  0  0
    2.5389    5.4775    0.0000 C   0  0  0
    2.0335    7.8518    0.0000 C   0  0  0
   -5.5833   -2.5624    0.0000 C   0  0  0
   -7.3229   -0.6347    0.0000 C   0  0  0
    3.8201    6.2415    0.0000 C   0  0  2
    3.5145    7.7108    0.0000 C   0  0  0
   -7.0173   -2.0923    0.0000 C   0  0  0
   -5.2777   -4.0200    0.0000 C   0  0  1
    5.1836    5.6420    0.0000 F   0  0  0
   -3.8671   -4.4666    0.0000 C   0  0  0
   -6.4061   -5.0073    0.0000 C   0  0  0
   -3.5615   -5.9241    0.0000 C   0  0  0
   -2.1980   -6.5236    0.0000 N   0  0  0
   -4.5724   -7.0290    0.0000 N   0  0  0
   -2.3626   -8.0046    0.0000 N   0  0  0
   -3.8319   -8.3103    0.0000 C   0  0  0
   -6.0769   -6.8645    0.0000 C   0  0  0
  1  2  1
  2  3  1
  2  4  1
  2  5  1
  5  6  2
  5  7  1
  6  8  1
  6  9  1
  7 10  2
  8 11  1
  8 12  2
  9 13  1
 14 10  1
 11 15  2
 13 16  1
 14 17  1  6  0
 14 18  1
 16 19  2
 16 20  1
 17 21  1
 17 22  1
 19 23  1
 20 24  2
 25 21  1
 22 26  1
 23 27  2
 28 23  1
 25 29  1  6  0
 28 30  1
 28 31  1  1  0
 30 32  1
 32 33  2
 32 34  1
 33 35  1
 34 36  1
 34 37  1
 10 12  1
 11 13  1
 24 27  1
 25 26  1
 35 36  2
M  END
> <COMPOUND_NAMES>
Example 404 (Stereo) (Page No: 572)

> <Reference>
WO2019148005

> <IC50_range_nM>
<100

> <smiles>
C[C@@H](c1cc2C(N(Cc2c(c1)C(F)(F)F)c1cccc(c1)[C@H](C)Cc1nncn1C)=O)N1CC[C@@H](C1)F

$$$$
C27H29F4N5O
  MOLSOFT 03092310482D

 37 41  0  0  1  0  0  0  0  0999 V2000
    0.0000   -0.0000    0.0000 F   0  0  0
    1.1049    1.0109    0.0000 C   0  0  0
    2.0923   -0.0940    0.0000 F   0  0  0
    2.2098    2.0217    0.0000 F   0  0  0
    0.0940    2.1393    0.0000 C   0  0  0
   -1.3870    1.8337    0.0000 C   0  0  0
    0.5407    3.5733    0.0000 C   0  0  0
   -2.3979    2.9621    0.0000 C   0  0  0
   -2.1510    0.5407    0.0000 C   0  0  0
   -0.4702    4.7017    0.0000 C   0  0  0
   -3.7849    2.3626    0.0000 C   0  0  0
   -1.9512    4.3961    0.0000 C   0  0  0
   -3.6321    0.8698    0.0000 N   0  0  0
   -0.0235    6.1357    0.0000 C   0  0  2
   -5.1013    3.1266    0.0000 O   0  0  0
   -4.7605   -0.1175    0.0000 C   0  0  0
    1.4340    6.4648    0.0000 N   0  0  0
   -1.0344    7.2641    0.0000 C   0  0  0
   -4.4549   -1.5751    0.0000 C   0  0  0
   -6.1945    0.3526    0.0000 C   0  0  0
    2.5389    5.4775    0.0000 C   0  0  0
    2.0335    7.8518    0.0000 C   0  0  0
   -5.5833   -2.5624    0.0000 C   0  0  0
   -7.3229   -0.6347    0.0000 C   0  0  0
    3.8201    6.2415    0.0000 C   0  0  2
    3.5145    7.7108    0.0000 C   0  0  0
   -7.0173   -2.0923    0.0000 C   0  0  0
   -5.2777   -4.0200    0.0000 C   0  0  1
    5.1836    5.6420    0.0000 F   0  0  0
   -3.8671   -4.4666    0.0000 C   0  0  0
   -6.4061   -5.0073    0.0000 C   0  0  0
   -3.5615   -5.9241    0.0000 C   0  0  0
   -2.1980   -6.5236    0.0000 N   0  0  0
   -4.5724   -7.0290    0.0000 N   0  0  0
   -2.3626   -8.0046    0.0000 N   0  0  0
   -3.8319   -8.3103    0.0000 C   0  0  0
   -6.0769   -6.8645    0.0000 C   0  0  0
  1  2  1
  2  3  1
  2  4  1
  2  5  1
  5  6  2
  5  7  1
  6  8  1
  6  9  1
  7 10  2
  8 11  1
  8 12  2
  9 13  1
 14 10  1
 11 15  2
 13 16  1
 14 17  1  1  0
 14 18  1
 16 19  2
 16 20  1
 17 21  1
 17 22  1
 19 23  1
 20 24  2
 25 21  1
 22 26  1
 23 27  2
 28 23  1
 25 29  1  6  0
 28 30  1
 28 31  1  1  0
 30 32  1
 32 33  2
 32 34  1
 33 35  1
 34 36  1
 34 37  1
 10 12  1
 11 13  1
 24 27  1
 25 26  1
 35 36  2
M  END
> <COMPOUND_NAMES>
Example 403 (Stereo) (Page No: 572)

> <Reference>
WO2019148005

> <IC50_range_nM>
<100

> <smiles>
C[C@H](Cc1nncn1C)c1cccc(c1)N1Cc2c(cc(cc2C(F)(F)F)[C@@H](C)N2CC[C@@H](C2)F)C1=O

$$$$
C26H25F4N5O
  MOLSOFT 03092310482D

 36 41  0  0  1  0  0  0  0  0999 V2000
    0.0000   -0.0000    0.0000 F   0  0  0
    1.0997    1.0169    0.0000 C   0  0  0
    2.0930   -0.0828    0.0000 F   0  0  0
    2.1994    2.0339    0.0000 F   0  0  0
    0.0828    2.1403    0.0000 C   0  0  0
   -1.3953    1.8447    0.0000 C   0  0  0
    0.5321    3.5829    0.0000 C   0  0  0
   -2.4123    2.9680    0.0000 C   0  0  0
   -2.1521    0.5558    0.0000 C   0  0  0
   -0.4848    4.7063    0.0000 C   0  0  0
   -3.7957    2.3650    0.0000 C   0  0  0
   -1.9629    4.4106    0.0000 C   0  0  0
   -3.6302    0.8750    0.0000 N   0  0  0
   -0.0355    6.1489    0.0000 C   0  0  0
   -5.1083    3.1217    0.0000 O   0  0  0
   -4.7536   -0.1182    0.0000 C   0  0  0
    1.4190    6.4681    0.0000 N   0  0  0
   -4.4579   -1.5727    0.0000 C   0  0  0
   -6.1962    0.3547    0.0000 C   0  0  0
    2.5187    5.4749    0.0000 C   0  0  0
    2.0220    7.8516    0.0000 C   0  0  0
   -5.5813   -2.5660    0.0000 C   0  0  0
   -7.3195   -0.6385    0.0000 C   0  0  0
    3.8076    6.2435    0.0000 C   0  0  2
    3.5001    7.7097    0.0000 C   0  0  0
   -7.0239   -2.0930    0.0000 C   0  0  0
   -5.2857   -4.0204    0.0000 C   0  0  2
    5.1674    5.6404    0.0000 F   0  0  0
   -4.2924   -5.1201    0.0000 C   0  0  1
   -5.7587   -5.4394    0.0000 C   0  0  0
   -2.8734   -5.5695    0.0000 C   0  0  0
   -2.4241   -6.9884    0.0000 N   0  0  0
   -1.6673   -4.6708    0.0000 N   0  0  0
   -0.9342   -6.9766    0.0000 N   0  0  0
   -0.4612   -5.5458    0.0000 C   0  0  0
   -1.6791   -3.1572    0.0000 C   0  0  0
  1  2  1
  2  3  1
  2  4  1
  2  5  1
  5  6  2
  5  7  1
  6  8  1
  6  9  1
  7 10  2
  8 11  1
  8 12  2
  9 13  1
 10 14  1
 11 15  2
 13 16  1
 14 17  1
 16 18  2
 16 19  1
 17 20  1
 17 21  1
 18 22  1
 19 23  2
 24 20  1
 21 25  1
 22 26  2
 27 22  1  6  0
 24 28  1  6  0
 27 29  1
 27 30  1
 29 31  1  6  0
 31 32  2
 31 33  1
 32 34  1
 33 35  1
 33 36  1
 10 12  1
 11 13  1
 23 26  1
 24 25  1
 29 30  1
 34 35  2
M  END
> <COMPOUND_NAMES>
Example 409 (Stereo) (Page No: 576)

> <Reference>
WO2019148005

> <IC50_range_nM>
<100

> <smiles>
Cn1cnnc1[C@@H]1C[C@@H]1c1cccc(c1)N1Cc2c(cc(CN3CC[C@@H](C3)F)cc2C(F)(F)F)C1=O

$$$$
C27H27F4N5O
  MOLSOFT 03092310482D

 37 42  0  0  1  0  0  0  0  0999 V2000
    0.0000   -0.0000    0.0000 F   0  0  0
   -0.0118   -1.4887    0.0000 C   0  0  0
    1.4769   -1.4769    0.0000 F   0  0  0
   -1.5241   -1.4769    0.0000 F   0  0  0
   -0.0236   -2.9774    0.0000 C   0  0  0
   -1.3351   -3.7099    0.0000 C   0  0  0
    1.2642   -3.7099    0.0000 C   0  0  0
   -1.3469   -5.1986    0.0000 C   0  0  0
   -2.7765   -3.2373    0.0000 C   0  0  0
    1.2524   -5.1986    0.0000 C   0  0  0
   -2.7884   -5.6476    0.0000 C   0  0  0
   -0.0591   -5.9312    0.0000 C   0  0  0
   -3.6745   -4.4425    0.0000 N   0  0  0
    2.5402   -5.9312    0.0000 C   0  0  3
   -3.2610   -7.0654    0.0000 O   0  0  0
   -5.1868   -4.4307    0.0000 C   0  0  0
    3.8281   -5.1750    0.0000 N   0  0  0
    2.5284   -7.4199    0.0000 C   0  0  0
   -5.9430   -5.7185    0.0000 C   0  0  0
   -5.9430   -3.1192    0.0000 C   0  0  0
    5.1868   -5.7776    0.0000 C   0  0  0
    3.9699   -3.6745    0.0000 C   0  0  0
   -7.4553   -5.7067    0.0000 C   0  0  0
   -7.4553   -3.1074    0.0000 C   0  0  0
    6.1793   -4.6551    0.0000 C   0  0  2
    5.4231   -3.3555    0.0000 C   0  0  0
   -8.2115   -4.3952    0.0000 C   0  0  0
   -8.2115   -6.9945    0.0000 C   0  0  2
    7.6562   -4.7969    0.0000 F   0  0  0
   -9.5230   -7.7271    0.0000 C   0  0  1
   -8.2233   -8.4832    0.0000 C   0  0  0
  -11.0353   -7.7152    0.0000 C   0  0  0
  -11.9332   -8.9204    0.0000 N   0  0  0
  -11.9332   -6.4865    0.0000 N   0  0  0
  -13.3747   -8.4478    0.0000 N   0  0  0
  -13.3747   -6.9355    0.0000 C   0  0  0
  -11.4843   -5.0450    0.0000 C   0  0  0
  1  2  1
  2  3  1
  2  4  1
  2  5  1
  5  6  2
  5  7  1
  6  8  1
  6  9  1
  7 10  2
  8 11  1
  8 12  2
  9 13  1
 14 10  1
 11 15  2
 13 16  1
 14 17  1
 14 18  1
 16 19  2
 16 20  1
 17 21  1
 17 22  1
 19 23  1
 20 24  2
 25 21  1
 22 26  1
 23 27  2
 28 23  1  1  0
 25 29  1  6  0
 28 30  1
 28 31  1
 30 32  1  1  0
 32 33  2
 32 34  1
 33 35  1
 34 36  1
 34 37  1
 10 12  1
 11 13  1
 24 27  1
 25 26  1
 30 31  1
 35 36  2
M  END
> <COMPOUND_NAMES>
Example 466 (Stereo) (Page No: 610)

> <Reference>
WO2019148005

> <IC50_range_nM>
<100

> <smiles>
CC(c1cc2C(N(Cc2c(c1)C(F)(F)F)c1cccc(c1)[C@H]1C[C@H]1c1nncn1C)=O)N1CC[C@@H](C1)F

$$$$
C26H26F5N5O
  MOLSOFT 03092310482D

 37 41  0  0  1  0  0  0  0  0999 V2000
    0.0000   -0.0000    0.0000 F   0  0  0
   -0.8945    1.2240    0.0000 C   0  0  0
    0.5885    1.3888    0.0000 F   0  0  0
   -2.2009    0.4825    0.0000 C   0  0  0
   -1.2240    2.7070    0.0000 C   0  0  0
   -3.3307    1.4947    0.0000 N   0  0  0
   -2.7305    2.8717    0.0000 C   0  0  0
   -4.8137    1.1887    0.0000 C   0  0  0
   -5.2845   -0.2236    0.0000 C   0  0  0
   -4.2958   -1.3299    0.0000 C   0  0  0
   -6.7674   -0.5296    0.0000 C   0  0  0
   -4.7666   -2.7423    0.0000 C   0  0  0
   -7.2382   -1.9420    0.0000 C   0  0  0
   -6.2495   -3.0483    0.0000 C   0  0  0
   -3.7780   -3.8486    0.0000 C   0  0  0
   -8.6270   -2.5422    0.0000 C   0  0  0
   -7.0146   -4.3429    0.0000 C   0  0  0
   -4.9078   -4.8372    0.0000 F   0  0  0
   -2.7893   -4.9549    0.0000 F   0  0  0
   -2.6717   -2.8364    0.0000 F   0  0  0
   -9.9451   -1.7772    0.0000 O   0  0  0
   -8.4857   -4.0251    0.0000 N   0  0  0
   -9.6156   -5.0138    0.0000 C   0  0  0
   -9.3096   -6.4732    0.0000 C   0  0  0
  -11.0515   -4.5430    0.0000 C   0  0  0
  -10.4395   -7.4618    0.0000 C   0  0  0
  -12.1813   -5.5316    0.0000 C   0  0  0
  -11.8753   -6.9910    0.0000 C   0  0  0
  -10.1334   -8.9212    0.0000 C   0  0  1
   -8.7211   -9.3684    0.0000 C   0  0  0
  -11.2633   -9.9098    0.0000 C   0  0  0
   -8.4151  -10.8278    0.0000 C   0  0  0
   -7.0499  -11.4281    0.0000 N   0  0  0
   -9.4273  -11.9342    0.0000 N   0  0  0
   -7.2146  -12.9110    0.0000 N   0  0  0
   -8.6858  -13.2170    0.0000 C   0  0  0
  -10.9338  -11.7694    0.0000 C   0  0  0
  1  2  1
  2  3  1
  2  4  1
  2  5  1
  4  6  1
  5  7  1
  6  8  1
  8  9  1
  9 10  2
  9 11  1
 10 12  1
 11 13  2
 12 14  2
 12 15  1
 13 16  1
 14 17  1
 15 18  1
 15 19  1
 15 20  1
 16 21  2
 16 22  1
 22 23  1
 23 24  2
 23 25  1
 24 26  1
 25 27  2
 26 28  2
 29 26  1
 29 30  1
 29 31  1  1  0
 30 32  1
 32 33  2
 32 34  1
 33 35  1
 34 36  1
 34 37  1
  6  7  1
 13 14  1
 17 22  1
 27 28  1
 35 36  2
M  END
> <COMPOUND_NAMES>
Example 396 (R) (Page No: 569)

> <Reference>
WO2019148005

> <IC50_range_nM>
<100

> <smiles>
C[C@H](Cc1nncn1C)c1cccc(c1)N1Cc2c(cc(CN3CCC(C3)(F)F)cc2C(F)(F)F)C1=O

$$$$
C26H27F4N5O2
  MOLSOFT 03092310482D

 37 41  0  0  1  0  0  0  0  0999 V2000
    0.0000   -0.0000    0.0000 F   0  0  0
    1.1052    1.0111    0.0000 C   0  0  0
    2.0928   -0.0941    0.0000 F   0  0  0
    2.2104    2.0222    0.0000 F   0  0  0
    0.0941    2.1398    0.0000 C   0  0  0
   -1.3874    1.8341    0.0000 C   0  0  0
    0.5408    3.5742    0.0000 C   0  0  0
   -2.3985    2.9628    0.0000 C   0  0  0
   -2.1516    0.5408    0.0000 C   0  0  0
   -0.4703    4.7029    0.0000 C   0  0  0
   -3.7858    2.3632    0.0000 C   0  0  0
   -1.9517    4.3972    0.0000 C   0  0  0
   -3.6330    0.8700    0.0000 N   0  0  0
   -0.0235    6.1373    0.0000 C   0  0  0
   -5.1026    3.1274    0.0000 O   0  0  0
   -4.7617   -0.1176    0.0000 C   0  0  0
    1.4344    6.4665    0.0000 N   0  0  0
   -4.4560   -1.5755    0.0000 C   0  0  0
   -6.1961    0.3527    0.0000 C   0  0  0
    2.5396    5.4789    0.0000 C   0  0  0
    2.0340    7.8538    0.0000 C   0  0  0
   -5.5847   -2.5631    0.0000 C   0  0  0
   -7.3248   -0.6349    0.0000 C   0  0  0
    3.8211    6.2431    0.0000 C   0  0  1
    3.5154    7.7127    0.0000 C   0  0  1
   -7.0191   -2.0928    0.0000 C   0  0  0
   -5.2790   -4.0210    0.0000 C   0  0  2
    5.1849    5.6435    0.0000 F   0  0  0
    4.5030    8.8414    0.0000 O   0  0  0
   -3.8681   -4.4677    0.0000 C   0  0  0
   -6.4077   -5.0086    0.0000 C   0  0  0
   -3.5624   -5.9256    0.0000 C   0  0  0
   -2.1986   -6.5253    0.0000 N   0  0  0
   -4.5736   -7.0308    0.0000 N   0  0  0
   -2.3632   -8.0067    0.0000 N   0  0  0
   -3.8329   -8.3124    0.0000 C   0  0  0
   -6.0785   -6.8662    0.0000 C   0  0  0
  1  2  1
  2  3  1
  2  4  1
  2  5  1
  5  6  2
  5  7  1
  6  8  1
  6  9  1
  7 10  2
  8 11  1
  8 12  2
  9 13  1
 10 14  1
 11 15  2
 13 16  1
 14 17  1
 16 18  2
 16 19  1
 17 20  1
 17 21  1
 18 22  1
 19 23  2
 24 20  1
 25 21  1
 22 26  2
 27 22  1
 24 28  1  1  0
 25 29  1  6  0
 27 30  1
 27 31  1  6  0
 30 32  1
 32 33  2
 32 34  1
 33 35  1
 34 36  1
 34 37  1
 10 12  1
 11 13  1
 23 26  1
 24 25  1
 35 36  2
M  END
> <COMPOUND_NAMES>
Example 395 (Stereo) (Page No: 569)

> <Reference>
WO2019148005

> <IC50_range_nM>
<100

> <smiles>
C[C@@H](Cc1nncn1C)c1cccc(c1)N1Cc2c(cc(CN3C[C@@H]([C@H](C3)F)O)cc2C(F)(F)F)C1=O

$$$$
C26H27F4N5O2
  MOLSOFT 03092310482D

 37 41  0  0  1  0  0  0  0  0999 V2000
    0.0000   -0.0000    0.0000 F   0  0  0
    1.1052    1.0111    0.0000 C   0  0  0
    2.0928   -0.0941    0.0000 F   0  0  0
    2.2104    2.0222    0.0000 F   0  0  0
    0.0941    2.1398    0.0000 C   0  0  0
   -1.3874    1.8341    0.0000 C   0  0  0
    0.5408    3.5742    0.0000 C   0  0  0
   -2.3985    2.9628    0.0000 C   0  0  0
   -2.1516    0.5408    0.0000 C   0  0  0
   -0.4703    4.7029    0.0000 C   0  0  0
   -3.7858    2.3632    0.0000 C   0  0  0
   -1.9517    4.3972    0.0000 C   0  0  0
   -3.6330    0.8700    0.0000 N   0  0  0
   -0.0235    6.1373    0.0000 C   0  0  0
   -5.1026    3.1274    0.0000 O   0  0  0
   -4.7617   -0.1176    0.0000 C   0  0  0
    1.4344    6.4665    0.0000 N   0  0  0
   -4.4560   -1.5755    0.0000 C   0  0  0
   -6.1961    0.3527    0.0000 C   0  0  0
    2.5396    5.4789    0.0000 C   0  0  0
    2.0340    7.8538    0.0000 C   0  0  0
   -5.5847   -2.5631    0.0000 C   0  0  0
   -7.3248   -0.6349    0.0000 C   0  0  0
    3.8211    6.2431    0.0000 C   0  0  1
    3.5154    7.7127    0.0000 C   0  0  2
   -7.0191   -2.0928    0.0000 C   0  0  0
   -5.2790   -4.0210    0.0000 C   0  0  2
    5.1849    5.6435    0.0000 F   0  0  0
    4.5030    8.8414    0.0000 O   0  0  0
   -3.8681   -4.4677    0.0000 C   0  0  0
   -6.4077   -5.0086    0.0000 C   0  0  0
   -3.5624   -5.9256    0.0000 C   0  0  0
   -2.1986   -6.5253    0.0000 N   0  0  0
   -4.5736   -7.0308    0.0000 N   0  0  0
   -2.3632   -8.0067    0.0000 N   0  0  0
   -3.8329   -8.3124    0.0000 C   0  0  0
   -6.0785   -6.8662    0.0000 C   0  0  0
  1  2  1
  2  3  1
  2  4  1
  2  5  1
  5  6  2
  5  7  1
  6  8  1
  6  9  1
  7 10  2
  8 11  1
  8 12  2
  9 13  1
 10 14  1
 11 15  2
 13 16  1
 14 17  1
 16 18  2
 16 19  1
 17 20  1
 17 21  1
 18 22  1
 19 23  2
 24 20  1
 25 21  1
 22 26  2
 27 22  1
 24 28  1  1  0
 25 29  1  1  0
 27 30  1
 27 31  1  6  0
 30 32  1
 32 33  2
 32 34  1
 33 35  1
 34 36  1
 34 37  1
 10 12  1
 11 13  1
 23 26  1
 24 25  1
 35 36  2
M  END
> <COMPOUND_NAMES>
Example 418 (cis) (Page No: 581)

> <Reference>
WO2019148005

> <IC50_range_nM>
<100

> <smiles>
C[C@@H](Cc1nncn1C)c1cccc(c1)N1Cc2c(cc(CN3C[C@@H]([C@@H](C3)O)F)cc2C(F)(F)F)C1=O

$$$$
C26H26F5N5O2
  MOLSOFT 03092310482D

 38 42  0  0  1  0  0  0  0  0999 V2000
    0.0000   -0.0000    0.0000 F   0  0  0
   -0.8945    1.2240    0.0000 C   0  0  0
    0.5885    1.3888    0.0000 F   0  0  0
   -1.2240    2.7069    0.0000 C   0  0  3
   -2.2008    0.4825    0.0000 C   0  0  0
   -0.2354    3.8367    0.0000 O   0  0  0
   -2.7304    2.8717    0.0000 C   0  0  0
   -3.3307    1.4947    0.0000 N   0  0  0
   -4.8136    1.1887    0.0000 C   0  0  0
   -5.2843   -0.2236    0.0000 C   0  0  0
   -4.2957   -1.3299    0.0000 C   0  0  0
   -6.7673   -0.5296    0.0000 C   0  0  0
   -4.7665   -2.7422    0.0000 C   0  0  0
   -7.2380   -1.9419    0.0000 C   0  0  0
   -6.2494   -3.0482    0.0000 C   0  0  0
   -3.7779   -3.8485    0.0000 C   0  0  0
   -8.6268   -2.5421    0.0000 C   0  0  0
   -7.0144   -4.3428    0.0000 C   0  0  0
   -4.9077   -4.8371    0.0000 F   0  0  0
   -2.7893   -4.9548    0.0000 F   0  0  0
   -2.6716   -2.8364    0.0000 F   0  0  0
   -9.9449   -1.7771    0.0000 O   0  0  0
   -8.4856   -4.0250    0.0000 N   0  0  0
   -9.6154   -5.0137    0.0000 C   0  0  0
   -9.3094   -6.4730    0.0000 C   0  0  0
  -11.0512   -4.5429    0.0000 C   0  0  0
  -10.4392   -7.4616    0.0000 C   0  0  0
  -12.1811   -5.5315    0.0000 C   0  0  0
  -11.8751   -6.9909    0.0000 C   0  0  0
  -10.1332   -8.9210    0.0000 C   0  0  1
   -8.7209   -9.3682    0.0000 C   0  0  0
  -11.2631   -9.9096    0.0000 C   0  0  0
   -8.4149  -10.8276    0.0000 C   0  0  0
   -7.0497  -11.4278    0.0000 N   0  0  0
   -9.4271  -11.9339    0.0000 N   0  0  0
   -7.2145  -12.9108    0.0000 N   0  0  0
   -8.6856  -13.2168    0.0000 C   0  0  0
  -10.9335  -11.7691    0.0000 C   0  0  0
  1  2  1
  2  3  1
  4  2  1
  2  5  1
  4  6  1
  4  7  1
  5  8  1
  8  9  1
  9 10  1
 10 11  2
 10 12  1
 11 13  1
 12 14  2
 13 15  2
 13 16  1
 14 17  1
 15 18  1
 16 19  1
 16 20  1
 16 21  1
 17 22  2
 17 23  1
 23 24  1
 24 25  2
 24 26  1
 25 27  1
 26 28  2
 27 29  2
 30 27  1
 30 31  1
 30 32  1  1  0
 31 33  1
 33 34  2
 33 35  1
 34 36  1
 35 37  1
 35 38  1
  7  8  1
 14 15  1
 18 23  1
 28 29  1
 36 37  2
M  END
> <COMPOUND_NAMES>
Example 417 (R) (Page No: 581)

> <Reference>
WO2019148005

> <IC50_range_nM>
<100

> <smiles>
C[C@H](Cc1nncn1C)c1cccc(c1)N1Cc2c(cc(CN3CC(C(C3)(F)F)O)cc2C(F)(F)F)C1=O

$$$$
C25H24F6N6O
  MOLSOFT 03092310482D

 38 42  0  0  1  0  0  0  0  0999 V2000
    0.0000   -0.0000    0.0000 F   0  0  0
    1.1023    1.0085    0.0000 C   0  0  0
    2.0991   -0.0938    0.0000 F   0  0  0
    2.2046    2.0287    0.0000 F   0  0  0
    0.0821    2.1343    0.0000 C   0  0  0
   -1.3955    1.8294    0.0000 C   0  0  0
    0.5277    3.5649    0.0000 C   0  0  0
   -2.4157    2.9551    0.0000 C   0  0  0
   -2.1577    0.5394    0.0000 C   0  0  0
   -0.4925    4.6907    0.0000 C   0  0  0
   -3.7995    2.3571    0.0000 C   0  0  0
   -1.9701    4.3858    0.0000 C   0  0  0
   -3.6353    0.8678    0.0000 N   0  0  0
   -0.0469    6.1214    0.0000 N   0  0  0
   -5.1129    3.1193    0.0000 O   0  0  0
   -4.7611   -0.1290    0.0000 C   0  0  0
   -1.0554    7.2471    0.0000 C   0  0  0
    1.4072    6.4497    0.0000 C   0  0  0
   -4.4562   -1.5831    0.0000 C   0  0  0
   -6.1917    0.3401    0.0000 C   0  0  0
   -0.6098    8.6778    0.0000 C   0  0  0
    1.8528    7.8804    0.0000 C   0  0  0
   -5.5819   -2.5682    0.0000 C   0  0  0
   -7.3175   -0.6567    0.0000 C   0  0  0
    0.8443    9.0061    0.0000 N   0  0  0
   -7.0243   -2.0991    0.0000 C   0  0  0
   -5.2770   -4.0223    0.0000 C   0  0  1
   -6.7546   -4.3272    0.0000 F   0  0  0
   -4.9721   -5.4764    0.0000 C   0  0  0
   -3.8229   -3.6939    0.0000 C   0  0  0
   -3.5180   -5.1480    0.0000 F   0  0  0
   -6.4497   -5.7813    0.0000 F   0  0  0
   -4.6672   -6.9305    0.0000 C   0  0  0
   -5.6875   -8.0328    0.0000 N   0  0  0
   -3.3069   -7.5286    0.0000 N   0  0  0
   -4.9487   -9.3228    0.0000 N   0  0  0
   -3.4711   -9.0061    0.0000 C   0  0  0
   -2.0170   -6.7663    0.0000 C   0  0  0
  1  2  1
  2  3  1
  2  4  1
  2  5  1
  5  6  2
  5  7  1
  6  8  1
  6  9  1
  7 10  2
  8 11  1
  8 12  2
  9 13  1
 10 14  1
 11 15  2
 13 16  1
 14 17  1
 14 18  1
 16 19  2
 16 20  1
 17 21  1
 18 22  1
 19 23  1
 20 24  2
 21 25  1
 23 26  2
 27 23  1  6  0
 27 28  1
 27 29  1
 27 30  1
 29 31  1
 29 32  1
 29 33  1
 33 34  2
 33 35  1
 34 36  1
 35 37  1
 35 38  1
 10 12  1
 11 13  1
 22 25  1
 24 26  1
 36 37  2
M  END
> <COMPOUND_NAMES>
Example 442 (R) (Page No: 593)

> <Reference>
WO2019148005

> <IC50_range_nM>
<100

> <smiles>
C[C@@](c1cccc(c1)N1Cc2c(cc(cc2C(F)(F)F)N2CCNCC2)C1=O)(C(c1nncn1C)(F)F)F

$$$$
C26H26F6N6O
  MOLSOFT 03092310482D

 39 43  0  0  1  0  0  0  0  0999 V2000
    0.0000   -0.0000    0.0000 F   0  0  0
    1.1021    1.0083    0.0000 C   0  0  0
    2.0988   -0.0938    0.0000 F   0  0  0
    2.2043    2.0284    0.0000 F   0  0  0
    0.0821    2.1339    0.0000 C   0  0  0
   -1.3953    1.8291    0.0000 C   0  0  0
    0.5276    3.5644    0.0000 C   0  0  0
   -2.4153    2.9547    0.0000 C   0  0  0
   -2.1574    0.5393    0.0000 C   0  0  0
   -0.4924    4.6900    0.0000 C   0  0  0
   -3.7989    2.3567    0.0000 C   0  0  0
   -1.9698    4.3851    0.0000 C   0  0  0
   -3.6347    0.8676    0.0000 N   0  0  0
   -0.0469    6.1204    0.0000 N   0  0  0
   -5.1121    3.1188    0.0000 O   0  0  0
   -4.7603   -0.1290    0.0000 C   0  0  0
   -1.0552    7.2460    0.0000 C   0  0  0
    1.4070    6.4487    0.0000 C   0  0  0
   -4.4555   -1.5829    0.0000 C   0  0  0
   -6.1908    0.3400    0.0000 C   0  0  0
   -0.6097    8.6765    0.0000 C   0  0  0
    1.8525    7.8792    0.0000 C   0  0  0
   -5.5811   -2.5678    0.0000 C   0  0  0
   -7.3164   -0.6566    0.0000 C   0  0  0
    0.8442    9.0048    0.0000 N   0  0  0
   -7.0233   -2.0988    0.0000 C   0  0  0
   -5.2762   -4.0217    0.0000 C   0  0  1
    1.2897   10.4470    0.0000 C   0  0  0
   -6.7536   -4.3265    0.0000 F   0  0  0
   -4.9714   -5.4756    0.0000 C   0  0  0
   -3.8223   -3.6934    0.0000 C   0  0  0
   -3.5175   -5.1473    0.0000 F   0  0  0
   -6.4487   -5.7804    0.0000 F   0  0  0
   -4.6665   -6.9295    0.0000 C   0  0  0
   -5.6866   -8.0316    0.0000 N   0  0  0
   -3.3064   -7.5274    0.0000 N   0  0  0
   -4.9479   -9.3214    0.0000 N   0  0  0
   -3.4706   -9.0048    0.0000 C   0  0  0
   -2.0167   -6.7653    0.0000 C   0  0  0
  1  2  1
  2  3  1
  2  4  1
  2  5  1
  5  6  2
  5  7  1
  6  8  1
  6  9  1
  7 10  2
  8 11  1
  8 12  2
  9 13  1
 10 14  1
 11 15  2
 13 16  1
 14 17  1
 14 18  1
 16 19  2
 16 20  1
 17 21  1
 18 22  1
 19 23  1
 20 24  2
 21 25  1
 23 26  2
 27 23  1  6  0
 25 28  1
 27 29  1
 27 30  1
 27 31  1
 30 32  1
 30 33  1
 30 34  1
 34 35  2
 34 36  1
 35 37  1
 36 38  1
 36 39  1
 10 12  1
 11 13  1
 22 25  1
 24 26  1
 37 38  2
M  END
> <COMPOUND_NAMES>
Example 441 (R) (Page No: 593)

> <Reference>
WO2019148005

> <IC50_range_nM>
101-300

> <smiles>
C[C@@](c1cccc(c1)N1Cc2c(cc(cc2C(F)(F)F)N2CCN(C)CC2)C1=O)(C(c1nncn1C)(F)F)F

$$$$
C27H28F6N6O
  MOLSOFT 03092310482D

 40 44  0  0  1  0  0  0  0  0999 V2000
    0.0000   -0.0000    0.0000 F   0  0  0
   -0.0118   -1.4917    0.0000 C   0  0  0
    1.4799   -1.4799    0.0000 F   0  0  0
   -1.5272   -1.4799    0.0000 F   0  0  0
   -0.0237   -2.9834    0.0000 C   0  0  0
   -1.3378   -3.7174    0.0000 C   0  0  0
    1.2668   -3.7174    0.0000 C   0  0  0
   -1.3496   -5.2091    0.0000 C   0  0  0
   -2.7822   -3.2439    0.0000 C   0  0  0
    1.2549   -5.2091    0.0000 C   0  0  0
   -2.7940   -5.6590    0.0000 C   0  0  0
   -0.0592   -5.9431    0.0000 C   0  0  0
   -3.6819   -4.4514    0.0000 N   0  0  0
    2.5454   -5.9431    0.0000 N   0  0  0
   -3.2675   -7.0797    0.0000 O   0  0  0
   -5.1973   -4.4396    0.0000 C   0  0  0
    3.8358   -5.1855    0.0000 C   0  0  1
    2.5335   -7.4349    0.0000 C   0  0  0
   -5.9550   -5.7300    0.0000 C   0  0  0
   -5.9550   -3.1255    0.0000 C   0  0  0
    5.1263   -5.9195    0.0000 C   0  0  0
    3.8240   -3.6701    0.0000 C   0  0  0
    3.8240   -8.1689    0.0000 C   0  0  0
   -7.4704   -5.7182    0.0000 C   0  0  0
   -7.4704   -3.1136    0.0000 C   0  0  0
    5.1144   -7.4112    0.0000 N   0  0  0
   -8.2281   -4.4041    0.0000 C   0  0  0
   -8.2281   -7.0087    0.0000 C   0  0  1
    6.4049   -8.1452    0.0000 C   0  0  0
   -6.9376   -7.7427    0.0000 F   0  0  0
   -8.9858   -8.2991    0.0000 C   0  0  0
   -9.5422   -6.2510    0.0000 C   0  0  0
  -10.2999   -7.5414    0.0000 F   0  0  0
   -7.6953   -9.0331    0.0000 F   0  0  0
   -9.7434   -9.5895    0.0000 C   0  0  0
   -9.1397  -10.9510    0.0000 N   0  0  0
  -11.2470   -9.7316    0.0000 N   0  0  0
  -10.2644  -11.9455    0.0000 N   0  0  0
  -11.5666  -11.1878    0.0000 C   0  0  0
  -12.2651   -8.6069    0.0000 C   0  0  0
  1  2  1
  2  3  1
  2  4  1
  2  5  1
  5  6  2
  5  7  1
  6  8  1
  6  9  1
  7 10  2
  8 11  1
  8 12  2
  9 13  1
 10 14  1
 11 15  2
 13 16  1
 17 14  1
 14 18  1
 16 19  2
 16 20  1
 17 21  1
 17 22  1  6  0
 18 23  1
 19 24  1
 20 25  2
 21 26  1
 24 27  2
 28 24  1  1  0
 26 29  1
 28 30  1
 28 31  1
 28 32  1
 31 33  1
 31 34  1
 31 35  1
 35 36  2
 35 37  1
 36 38  1
 37 39  1
 37 40  1
 10 12  1
 11 13  1
 23 26  1
 25 27  1
 38 39  2
M  END
> <COMPOUND_NAMES>
Example 443 (Stereo) (Page No: 594)

> <Reference>
WO2019148005

> <IC50_range_nM>
<100

> <smiles>
C[C@@H]1CN(C)CCN1c1cc2C(N(Cc2c(c1)C(F)(F)F)c1cccc(c1)[C@](C)(C(c1nncn1C)(F)F)F)=O

$$$$
C27H28F6N6O
  MOLSOFT 03092310482D

 40 44  0  0  1  0  0  0  0  0999 V2000
    0.0000   -0.0000    0.0000 F   0  0  0
   -0.0118   -1.4917    0.0000 C   0  0  0
    1.4799   -1.4799    0.0000 F   0  0  0
   -1.5272   -1.4799    0.0000 F   0  0  0
   -0.0237   -2.9834    0.0000 C   0  0  0
   -1.3378   -3.7174    0.0000 C   0  0  0
    1.2668   -3.7174    0.0000 C   0  0  0
   -1.3496   -5.2091    0.0000 C   0  0  0
   -2.7822   -3.2439    0.0000 C   0  0  0
    1.2549   -5.2091    0.0000 C   0  0  0
   -2.7940   -5.6590    0.0000 C   0  0  0
   -0.0592   -5.9431    0.0000 C   0  0  0
   -3.6819   -4.4514    0.0000 N   0  0  0
    2.5454   -5.9431    0.0000 N   0  0  0
   -3.2675   -7.0797    0.0000 O   0  0  0
   -5.1973   -4.4396    0.0000 C   0  0  0
    3.8358   -5.1855    0.0000 C   0  0  2
    2.5335   -7.4349    0.0000 C   0  0  0
   -5.9550   -5.7300    0.0000 C   0  0  0
   -5.9550   -3.1255    0.0000 C   0  0  0
    5.1263   -5.9195    0.0000 C   0  0  0
    3.8240   -3.6701    0.0000 C   0  0  0
    3.8240   -8.1689    0.0000 C   0  0  0
   -7.4704   -5.7182    0.0000 C   0  0  0
   -7.4704   -3.1136    0.0000 C   0  0  0
    5.1144   -7.4112    0.0000 N   0  0  0
   -8.2281   -4.4041    0.0000 C   0  0  0
   -8.2281   -7.0087    0.0000 C   0  0  1
    6.4049   -8.1452    0.0000 C   0  0  0
   -6.9376   -7.7427    0.0000 F   0  0  0
   -8.9858   -8.2991    0.0000 C   0  0  0
   -9.5422   -6.2510    0.0000 C   0  0  0
  -10.2999   -7.5414    0.0000 F   0  0  0
   -7.6953   -9.0331    0.0000 F   0  0  0
   -9.7434   -9.5895    0.0000 C   0  0  0
   -9.1397  -10.9510    0.0000 N   0  0  0
  -11.2470   -9.7316    0.0000 N   0  0  0
  -10.2644  -11.9455    0.0000 N   0  0  0
  -11.5666  -11.1878    0.0000 C   0  0  0
  -12.2651   -8.6069    0.0000 C   0  0  0
  1  2  1
  2  3  1
  2  4  1
  2  5  1
  5  6  2
  5  7  1
  6  8  1
  6  9  1
  7 10  2
  8 11  1
  8 12  2
  9 13  1
 10 14  1
 11 15  2
 13 16  1
 17 14  1
 14 18  1
 16 19  2
 16 20  1
 17 21  1
 17 22  1  1  0
 18 23  1
 19 24  1
 20 25  2
 21 26  1
 24 27  2
 28 24  1  1  0
 26 29  1
 28 30  1
 28 31  1
 28 32  1
 31 33  1
 31 34  1
 31 35  1
 35 36  2
 35 37  1
 36 38  1
 37 39  1
 37 40  1
 10 12  1
 11 13  1
 23 26  1
 25 27  1
 38 39  2
M  END
> <COMPOUND_NAMES>
Example 444 (Stereo) (Page No: 594)

> <Reference>
WO2019148005

> <IC50_range_nM>
<100

> <smiles>
C[C@H]1CN(C)CCN1c1cc2C(N(Cc2c(c1)C(F)(F)F)c1cccc(c1)[C@](C)(C(c1nncn1C)(F)F)F)=O

$$$$
C26H25F7N6O
  MOLSOFT 03092310482D

 40 44  0  0  1  0  0  0  0  0999 V2000
    0.0000   -0.0000    0.0000 F   0  0  0
   -0.0118   -1.4911    0.0000 C   0  0  0
    1.4793   -1.4793    0.0000 F   0  0  0
   -1.5266   -1.4793    0.0000 F   0  0  0
   -0.0237   -2.9822    0.0000 C   0  0  0
   -1.3373   -3.7159    0.0000 C   0  0  0
    1.2662   -3.7159    0.0000 C   0  0  0
   -1.3491   -5.2070    0.0000 C   0  0  0
   -2.7810   -3.2425    0.0000 C   0  0  0
    1.2544   -5.2070    0.0000 C   0  0  0
   -2.7928   -5.6567    0.0000 C   0  0  0
   -0.0592   -5.9407    0.0000 C   0  0  0
   -3.6804   -4.4496    0.0000 N   0  0  0
    2.5443   -5.9407    0.0000 N   0  0  0
   -3.2662   -7.0768    0.0000 O   0  0  0
   -5.1952   -4.4378    0.0000 C   0  0  0
    3.8342   -5.1833    0.0000 C   0  0  1
    2.5325   -7.4318    0.0000 C   0  0  0
   -5.9526   -5.7277    0.0000 C   0  0  0
   -5.9526   -3.1242    0.0000 C   0  0  0
    5.1952   -5.7869    0.0000 C   0  0  1
    3.9763   -3.6804    0.0000 C   0  0  0
   -7.4673   -5.7159    0.0000 C   0  0  0
   -7.4673   -3.1124    0.0000 C   0  0  0
    5.4910   -7.2425    0.0000 F   0  0  0
    6.1892   -4.6626    0.0000 C   0  0  0
    5.4319   -3.3609    0.0000 N   0  0  0
   -8.2247   -4.4023    0.0000 C   0  0  0
   -8.2247   -7.0058    0.0000 C   0  0  1
   -6.9348   -7.7395    0.0000 F   0  0  0
   -8.9821   -8.2957    0.0000 C   0  0  0
   -9.5383   -6.2484    0.0000 C   0  0  0
  -10.2957   -7.5383    0.0000 F   0  0  0
   -7.6922   -9.0294    0.0000 F   0  0  0
   -9.7395   -9.5856    0.0000 C   0  0  0
   -9.1359  -10.9465    0.0000 N   0  0  0
  -11.2424   -9.7276    0.0000 N   0  0  0
  -10.2602  -11.9406    0.0000 N   0  0  0
  -11.5619  -11.1832    0.0000 C   0  0  0
  -12.2601   -8.6034    0.0000 C   0  0  0
  1  2  1
  2  3  1
  2  4  1
  2  5  1
  5  6  2
  5  7  1
  6  8  1
  6  9  1
  7 10  2
  8 11  1
  8 12  2
  9 13  1
 10 14  1
 11 15  2
 13 16  1
 17 14  1  6  0
 14 18  1
 16 19  2
 16 20  1
 17 21  1
 17 22  1
 19 23  1
 20 24  2
 21 25  1  6  0
 21 26  1
 22 27  1
 23 28  2
 29 23  1  1  0
 29 30  1
 29 31  1
 29 32  1
 31 33  1
 31 34  1
 31 35  1
 35 36  2
 35 37  1
 36 38  1
 37 39  1
 37 40  1
 10 12  1
 11 13  1
 24 28  1
 26 27  1
 38 39  2
M  END
> <COMPOUND_NAMES>
Example 548 (Stereo) (Page No: 683)

> <Reference>
WO2019148005

> <IC50_range_nM>
101-300

> <smiles>
C[C@@](c1cccc(c1)N1Cc2c(cc(cc2C(F)(F)F)N(C)[C@@H]2CNC[C@@H]2F)C1=O)(C(c1nncn1C)(F)F)F

$$$$
C26H25F7N6O
  MOLSOFT 03092310482D

 40 44  0  0  1  0  0  0  0  0999 V2000
    0.0000   -0.0000    0.0000 F   0  0  0
   -0.0118   -1.4911    0.0000 C   0  0  0
    1.4793   -1.4793    0.0000 F   0  0  0
   -1.5266   -1.4793    0.0000 F   0  0  0
   -0.0237   -2.9822    0.0000 C   0  0  0
   -1.3373   -3.7159    0.0000 C   0  0  0
    1.2662   -3.7159    0.0000 C   0  0  0
   -1.3491   -5.2070    0.0000 C   0  0  0
   -2.7810   -3.2425    0.0000 C   0  0  0
    1.2544   -5.2070    0.0000 C   0  0  0
   -2.7928   -5.6567    0.0000 C   0  0  0
   -0.0592   -5.9407    0.0000 C   0  0  0
   -3.6804   -4.4496    0.0000 N   0  0  0
    2.5443   -5.9407    0.0000 N   0  0  0
   -3.2662   -7.0768    0.0000 O   0  0  0
   -5.1952   -4.4378    0.0000 C   0  0  0
    3.8342   -5.1833    0.0000 C   0  0  1
    2.5325   -7.4318    0.0000 C   0  0  0
   -5.9526   -5.7277    0.0000 C   0  0  0
   -5.9526   -3.1242    0.0000 C   0  0  0
    5.1952   -5.7869    0.0000 C   0  0  2
    3.9763   -3.6804    0.0000 C   0  0  0
   -7.4673   -5.7159    0.0000 C   0  0  0
   -7.4673   -3.1124    0.0000 C   0  0  0
    5.4910   -7.2425    0.0000 F   0  0  0
    6.1892   -4.6626    0.0000 C   0  0  0
    5.4319   -3.3609    0.0000 N   0  0  0
   -8.2247   -4.4023    0.0000 C   0  0  0
   -8.2247   -7.0058    0.0000 C   0  0  1
   -6.9348   -7.7395    0.0000 F   0  0  0
   -8.9821   -8.2957    0.0000 C   0  0  0
   -9.5383   -6.2484    0.0000 C   0  0  0
  -10.2957   -7.5383    0.0000 F   0  0  0
   -7.6922   -9.0294    0.0000 F   0  0  0
   -9.7395   -9.5856    0.0000 C   0  0  0
   -9.1359  -10.9465    0.0000 N   0  0  0
  -11.2424   -9.7276    0.0000 N   0  0  0
  -10.2602  -11.9406    0.0000 N   0  0  0
  -11.5619  -11.1832    0.0000 C   0  0  0
  -12.2601   -8.6034    0.0000 C   0  0  0
  1  2  1
  2  3  1
  2  4  1
  2  5  1
  5  6  2
  5  7  1
  6  8  1
  6  9  1
  7 10  2
  8 11  1
  8 12  2
  9 13  1
 10 14  1
 11 15  2
 13 16  1
 17 14  1  6  0
 14 18  1
 16 19  2
 16 20  1
 17 21  1
 17 22  1
 19 23  1
 20 24  2
 21 25  1  1  0
 21 26  1
 22 27  1
 23 28  2
 29 23  1  1  0
 29 30  1
 29 31  1
 29 32  1
 31 33  1
 31 34  1
 31 35  1
 35 36  2
 35 37  1
 36 38  1
 37 39  1
 37 40  1
 10 12  1
 11 13  1
 24 28  1
 26 27  1
 38 39  2
M  END
> <COMPOUND_NAMES>
Example 551 (Stereo) (Page No: 685)

> <Reference>
WO2019148005

> <IC50_range_nM>
<100

> <smiles>
C[C@@](c1cccc(c1)N1Cc2c(cc(cc2C(F)(F)F)N(C)[C@@H]2CNC[C@H]2F)C1=O)(C(c1nncn1C)(F)F)F

$$$$
C26H25F7N6O
  MOLSOFT 03092310482D

 40 44  0  0  1  0  0  0  0  0999 V2000
    0.0000   -0.0000    0.0000 F   0  0  0
   -0.0118   -1.4911    0.0000 C   0  0  0
    1.4793   -1.4793    0.0000 F   0  0  0
   -1.5266   -1.4793    0.0000 F   0  0  0
   -0.0237   -2.9822    0.0000 C   0  0  0
   -1.3373   -3.7159    0.0000 C   0  0  0
    1.2662   -3.7159    0.0000 C   0  0  0
   -1.3491   -5.2070    0.0000 C   0  0  0
   -2.7810   -3.2425    0.0000 C   0  0  0
    1.2544   -5.2070    0.0000 C   0  0  0
   -2.7928   -5.6567    0.0000 C   0  0  0
   -0.0592   -5.9407    0.0000 C   0  0  0
   -3.6804   -4.4496    0.0000 N   0  0  0
    2.5443   -5.9407    0.0000 N   0  0  0
   -3.2662   -7.0768    0.0000 O   0  0  0
   -5.1952   -4.4378    0.0000 C   0  0  0
    3.8342   -5.1833    0.0000 C   0  0  2
    2.5325   -7.4318    0.0000 C   0  0  0
   -5.9526   -5.7277    0.0000 C   0  0  0
   -5.9526   -3.1242    0.0000 C   0  0  0
    5.1952   -5.7869    0.0000 C   0  0  1
    3.9763   -3.6804    0.0000 C   0  0  0
   -7.4673   -5.7159    0.0000 C   0  0  0
   -7.4673   -3.1124    0.0000 C   0  0  0
    5.4910   -7.2425    0.0000 F   0  0  0
    6.1892   -4.6626    0.0000 C   0  0  0
    5.4319   -3.3609    0.0000 N   0  0  0
   -8.2247   -4.4023    0.0000 C   0  0  0
   -8.2247   -7.0058    0.0000 C   0  0  1
   -6.9348   -7.7395    0.0000 F   0  0  0
   -8.9821   -8.2957    0.0000 C   0  0  0
   -9.5383   -6.2484    0.0000 C   0  0  0
  -10.2957   -7.5383    0.0000 F   0  0  0
   -7.6922   -9.0294    0.0000 F   0  0  0
   -9.7395   -9.5856    0.0000 C   0  0  0
   -9.1359  -10.9465    0.0000 N   0  0  0
  -11.2424   -9.7276    0.0000 N   0  0  0
  -10.2602  -11.9406    0.0000 N   0  0  0
  -11.5619  -11.1832    0.0000 C   0  0  0
  -12.2601   -8.6034    0.0000 C   0  0  0
  1  2  1
  2  3  1
  2  4  1
  2  5  1
  5  6  2
  5  7  1
  6  8  1
  6  9  1
  7 10  2
  8 11  1
  8 12  2
  9 13  1
 10 14  1
 11 15  2
 13 16  1
 17 14  1  1  0
 14 18  1
 16 19  2
 16 20  1
 17 21  1
 17 22  1
 19 23  1
 20 24  2
 21 25  1  6  0
 21 26  1
 22 27  1
 23 28  2
 29 23  1  1  0
 29 30  1
 29 31  1
 29 32  1
 31 33  1
 31 34  1
 31 35  1
 35 36  2
 35 37  1
 36 38  1
 37 39  1
 37 40  1
 10 12  1
 11 13  1
 24 28  1
 26 27  1
 38 39  2
M  END
> <COMPOUND_NAMES>
Example 550 (Stereo) (Page No: 685)

> <Reference>
WO2019148005

> <IC50_range_nM>
<100

> <smiles>
C[C@@](c1cccc(c1)N1Cc2c(cc(cc2C(F)(F)F)N(C)[C@H]2CNC[C@@H]2F)C1=O)(C(c1nncn1C)(F)F)F

$$$$
C26H25F7N6O
  MOLSOFT 03092310482D

 40 44  0  0  1  0  0  0  0  0999 V2000
    0.0000   -0.0000    0.0000 F   0  0  0
   -0.0118   -1.4911    0.0000 C   0  0  0
    1.4793   -1.4793    0.0000 F   0  0  0
   -1.5266   -1.4793    0.0000 F   0  0  0
   -0.0237   -2.9822    0.0000 C   0  0  0
   -1.3373   -3.7159    0.0000 C   0  0  0
    1.2662   -3.7159    0.0000 C   0  0  0
   -1.3491   -5.2070    0.0000 C   0  0  0
   -2.7810   -3.2425    0.0000 C   0  0  0
    1.2544   -5.2070    0.0000 C   0  0  0
   -2.7928   -5.6567    0.0000 C   0  0  0
   -0.0592   -5.9407    0.0000 C   0  0  0
   -3.6804   -4.4496    0.0000 N   0  0  0
    2.5443   -5.9407    0.0000 N   0  0  0
   -3.2662   -7.0768    0.0000 O   0  0  0
   -5.1952   -4.4378    0.0000 C   0  0  0
    3.8342   -5.1833    0.0000 C   0  0  2
    2.5325   -7.4318    0.0000 C   0  0  0
   -5.9526   -5.7277    0.0000 C   0  0  0
   -5.9526   -3.1242    0.0000 C   0  0  0
    5.1952   -5.7869    0.0000 C   0  0  2
    3.9763   -3.6804    0.0000 C   0  0  0
   -7.4673   -5.7159    0.0000 C   0  0  0
   -7.4673   -3.1124    0.0000 C   0  0  0
    5.4910   -7.2425    0.0000 F   0  0  0
    6.1892   -4.6626    0.0000 C   0  0  0
    5.4319   -3.3609    0.0000 N   0  0  0
   -8.2247   -4.4023    0.0000 C   0  0  0
   -8.2247   -7.0058    0.0000 C   0  0  1
   -6.9348   -7.7395    0.0000 F   0  0  0
   -8.9821   -8.2957    0.0000 C   0  0  0
   -9.5383   -6.2484    0.0000 C   0  0  0
  -10.2957   -7.5383    0.0000 F   0  0  0
   -7.6922   -9.0294    0.0000 F   0  0  0
   -9.7395   -9.5856    0.0000 C   0  0  0
   -9.1359  -10.9465    0.0000 N   0  0  0
  -11.2424   -9.7276    0.0000 N   0  0  0
  -10.2602  -11.9406    0.0000 N   0  0  0
  -11.5619  -11.1832    0.0000 C   0  0  0
  -12.2601   -8.6034    0.0000 C   0  0  0
  1  2  1
  2  3  1
  2  4  1
  2  5  1
  5  6  2
  5  7  1
  6  8  1
  6  9  1
  7 10  2
  8 11  1
  8 12  2
  9 13  1
 10 14  1
 11 15  2
 13 16  1
 17 14  1  1  0
 14 18  1
 16 19  2
 16 20  1
 17 21  1
 17 22  1
 19 23  1
 20 24  2
 21 25  1  1  0
 21 26  1
 22 27  1
 23 28  2
 29 23  1  1  0
 29 30  1
 29 31  1
 29 32  1
 31 33  1
 31 34  1
 31 35  1
 35 36  2
 35 37  1
 36 38  1
 37 39  1
 37 40  1
 10 12  1
 11 13  1
 24 28  1
 26 27  1
 38 39  2
M  END
> <COMPOUND_NAMES>
Example 549 (Stereo) (Page No: 684)

> <Reference>
WO2019148005

> <IC50_range_nM>
101-300

> <smiles>
C[C@@](c1cccc(c1)N1Cc2c(cc(cc2C(F)(F)F)N(C)[C@H]2CNC[C@H]2F)C1=O)(C(c1nncn1C)(F)F)F

$$$$
C25H22F7N5O
  MOLSOFT 03092310482D

 38 42  0  0  1  0  0  0  0  0999 V2000
    0.0000   -0.0000    0.0000 F   0  0  0
    1.1031    1.0093    0.0000 C   0  0  0
    2.1007   -0.0939    0.0000 F   0  0  0
    2.2063    2.0303    0.0000 F   0  0  0
    0.0821    2.1359    0.0000 C   0  0  0
   -1.3965    1.8308    0.0000 C   0  0  0
    0.5281    3.5676    0.0000 C   0  0  0
   -2.4175    2.9574    0.0000 C   0  0  0
   -2.1594    0.5398    0.0000 C   0  0  0
   -0.4929    4.6942    0.0000 C   0  0  0
   -3.8023    2.3589    0.0000 C   0  0  0
   -1.9716    4.3891    0.0000 C   0  0  0
   -3.6380    0.8684    0.0000 N   0  0  0
   -0.0469    6.1260    0.0000 C   0  0  0
   -5.1167    3.1217    0.0000 O   0  0  0
   -4.7647   -0.1291    0.0000 C   0  0  0
    1.4083    6.4546    0.0000 N   0  0  0
   -4.4595   -1.5843    0.0000 C   0  0  0
   -6.1964    0.3403    0.0000 C   0  0  0
    2.2180    7.7220    0.0000 C   0  0  0
    2.6522    5.6448    0.0000 C   0  0  0
   -5.5861   -2.5701    0.0000 C   0  0  0
   -7.3230   -0.6572    0.0000 C   0  0  0
    3.4620    6.9123    0.0000 C   0  0  0
   -7.0296   -2.1007    0.0000 C   0  0  0
   -5.2810   -4.0253    0.0000 C   0  0  1
    4.9172    7.2409    0.0000 F   0  0  0
   -6.7597   -4.3304    0.0000 F   0  0  0
   -4.9759   -5.4805    0.0000 C   0  0  0
   -3.8258   -3.6967    0.0000 C   0  0  0
   -3.5207   -5.1519    0.0000 F   0  0  0
   -6.4546   -5.7857    0.0000 F   0  0  0
   -4.6708   -6.9357    0.0000 C   0  0  0
   -5.6918   -8.0389    0.0000 N   0  0  0
   -3.3094   -7.5343    0.0000 N   0  0  0
   -4.9524   -9.3298    0.0000 N   0  0  0
   -3.4737   -9.0129    0.0000 C   0  0  0
   -2.0185   -6.7714    0.0000 C   0  0  0
  1  2  1
  2  3  1
  2  4  1
  2  5  1
  5  6  2
  5  7  1
  6  8  1
  6  9  1
  7 10  2
  8 11  1
  8 12  2
  9 13  1
 10 14  1
 11 15  2
 13 16  1
 14 17  1
 16 18  2
 16 19  1
 17 20  1
 17 21  1
 18 22  1
 19 23  2
 20 24  1
 22 25  2
 26 22  1  6  0
 24 27  1
 26 28  1
 26 29  1
 26 30  1
 29 31  1
 29 32  1
 29 33  1
 33 34  2
 33 35  1
 34 36  1
 35 37  1
 35 38  1
 10 12  1
 11 13  1
 21 24  1
 23 25  1
 36 37  2
M  END
> <COMPOUND_NAMES>
Example 451 (R) (Page No: 600)

> <Reference>
WO2019148005

> <IC50_range_nM>
101-300

> <smiles>
C[C@@](c1cccc(c1)N1Cc2c(cc(CN3CC(C3)F)cc2C(F)(F)F)C1=O)(C(c1nncn1C)(F)F)F

$$$$
C26H24F7N5O
  MOLSOFT 03092310482D

 39 43  0  0  1  0  0  0  0  0999 V2000
    0.0000   -0.0000    0.0000 F   0  0  0
    1.1047    1.0107    0.0000 C   0  0  0
    2.0920   -0.0940    0.0000 F   0  0  0
    2.2095    2.0214    0.0000 F   0  0  0
    0.0940    2.1390    0.0000 C   0  0  0
   -1.3868    1.8334    0.0000 C   0  0  0
    0.5406    3.5728    0.0000 C   0  0  0
   -2.3975    2.9616    0.0000 C   0  0  0
   -2.1507    0.5406    0.0000 C   0  0  0
   -0.4701    4.7010    0.0000 C   0  0  0
   -3.7843    2.3623    0.0000 C   0  0  0
   -1.9509    4.3955    0.0000 C   0  0  0
   -3.6315    0.8697    0.0000 N   0  0  0
   -0.0235    6.1348    0.0000 C   0  0  0
   -5.1006    3.1262    0.0000 O   0  0  0
   -4.7598   -0.1175    0.0000 C   0  0  0
    1.4338    6.4639    0.0000 N   0  0  0
   -4.4542   -1.5748    0.0000 C   0  0  0
   -6.1936    0.3526    0.0000 C   0  0  0
    2.5386    5.4767    0.0000 C   0  0  0
    2.0332    7.8507    0.0000 C   0  0  0
   -5.5825   -2.5621    0.0000 C   0  0  0
   -7.3219   -0.6346    0.0000 C   0  0  0
    3.8196    6.2406    0.0000 C   0  0  1
    3.5140    7.7097    0.0000 C   0  0  0
   -7.0163   -2.0920    0.0000 C   0  0  0
   -5.2769   -4.0194    0.0000 C   0  0  1
    5.1829    5.6412    0.0000 F   0  0  0
   -6.7577   -4.3249    0.0000 F   0  0  0
   -4.9713   -5.4767    0.0000 C   0  0  0
   -3.8196   -3.6903    0.0000 C   0  0  0
   -3.5140   -5.1476    0.0000 F   0  0  0
   -6.4522   -5.7823    0.0000 F   0  0  0
   -4.6658   -6.9340    0.0000 C   0  0  0
   -5.6765   -8.0388    0.0000 N   0  0  0
   -3.3025   -7.5334    0.0000 N   0  0  0
   -4.9361   -9.3315    0.0000 N   0  0  0
   -3.4670   -9.0142    0.0000 C   0  0  0
   -2.0097   -6.7695    0.0000 C   0  0  0
  1  2  1
  2  3  1
  2  4  1
  2  5  1
  5  6  2
  5  7  1
  6  8  1
  6  9  1
  7 10  2
  8 11  1
  8 12  2
  9 13  1
 10 14  1
 11 15  2
 13 16  1
 14 17  1
 16 18  2
 16 19  1
 17 20  1
 17 21  1
 18 22  1
 19 23  2
 24 20  1
 21 25  1
 22 26  2
 27 22  1  6  0
 24 28  1  1  0
 27 29  1
 27 30  1
 27 31  1
 30 32  1
 30 33  1
 30 34  1
 34 35  2
 34 36  1
 35 37  1
 36 38  1
 36 39  1
 10 12  1
 11 13  1
 23 26  1
 24 25  1
 37 38  2
M  END
> <COMPOUND_NAMES>
Example 450 (Stereo) (Page No: 599)

> <Reference>
WO2019148005

> <IC50_range_nM>
<100

> <smiles>
C[C@@](c1cccc(c1)N1Cc2c(cc(CN3CC[C@H](C3)F)cc2C(F)(F)F)C1=O)(C(c1nncn1C)(F)F)F

$$$$
C26H24F7N5O
  MOLSOFT 03092310482D

 39 43  0  0  1  0  0  0  0  0999 V2000
    0.0000   -0.0000    0.0000 F   0  0  0
    1.1047    1.0107    0.0000 C   0  0  0
    2.0920   -0.0940    0.0000 F   0  0  0
    2.2095    2.0214    0.0000 F   0  0  0
    0.0940    2.1390    0.0000 C   0  0  0
   -1.3868    1.8334    0.0000 C   0  0  0
    0.5406    3.5728    0.0000 C   0  0  0
   -2.3975    2.9616    0.0000 C   0  0  0
   -2.1507    0.5406    0.0000 C   0  0  0
   -0.4701    4.7010    0.0000 C   0  0  0
   -3.7843    2.3623    0.0000 C   0  0  0
   -1.9509    4.3955    0.0000 C   0  0  0
   -3.6315    0.8697    0.0000 N   0  0  0
   -0.0235    6.1348    0.0000 C   0  0  0
   -5.1006    3.1262    0.0000 O   0  0  0
   -4.7598   -0.1175    0.0000 C   0  0  0
    1.4338    6.4639    0.0000 N   0  0  0
   -4.4542   -1.5748    0.0000 C   0  0  0
   -6.1936    0.3526    0.0000 C   0  0  0
    2.5386    5.4767    0.0000 C   0  0  0
    2.0332    7.8507    0.0000 C   0  0  0
   -5.5825   -2.5621    0.0000 C   0  0  0
   -7.3219   -0.6346    0.0000 C   0  0  0
    3.8196    6.2406    0.0000 C   0  0  1
    3.5140    7.7097    0.0000 C   0  0  0
   -7.0163   -2.0920    0.0000 C   0  0  0
   -5.2769   -4.0194    0.0000 C   0  0  1
    5.1829    5.6412    0.0000 F   0  0  0
   -6.7577   -4.3249    0.0000 F   0  0  0
   -4.9713   -5.4767    0.0000 C   0  0  0
   -3.8196   -3.6903    0.0000 C   0  0  0
   -3.5140   -5.1476    0.0000 F   0  0  0
   -6.4522   -5.7823    0.0000 F   0  0  0
   -4.6658   -6.9340    0.0000 C   0  0  0
   -5.6765   -8.0388    0.0000 N   0  0  0
   -3.3025   -7.5334    0.0000 N   0  0  0
   -4.9361   -9.3315    0.0000 N   0  0  0
   -3.4670   -9.0142    0.0000 C   0  0  0
   -2.0097   -6.7695    0.0000 C   0  0  0
  1  2  1
  2  3  1
  2  4  1
  2  5  1
  5  6  2
  5  7  1
  6  8  1
  6  9  1
  7 10  2
  8 11  1
  8 12  2
  9 13  1
 10 14  1
 11 15  2
 13 16  1
 14 17  1
 16 18  2
 16 19  1
 17 20  1
 17 21  1
 18 22  1
 19 23  2
 24 20  1
 21 25  1
 22 26  2
 27 22  1  6  0
 24 28  1  1  0
 27 29  1
 27 30  1
 27 31  1
 30 32  1
 30 33  1
 30 34  1
 34 35  2
 34 36  1
 35 37  1
 36 38  1
 36 39  1
 10 12  1
 11 13  1
 23 26  1
 24 25  1
 37 38  2
M  END
> <COMPOUND_NAMES>
Example 449 (Stereo) (Page No: 598)

> <Reference>
WO2019148005

> <IC50_range_nM>
301-1000

> <smiles>
C[C@@](c1cccc(c1)N1Cc2c(cc(CN3CC[C@H](C3)F)cc2C(F)(F)F)C1=O)(C(c1nncn1C)(F)F)F

$$$$
C26H24F7N5O
  MOLSOFT 03092310482D

 39 43  0  0  1  0  0  0  0  0999 V2000
    0.0000   -0.0000    0.0000 F   0  0  0
    1.1047    1.0107    0.0000 C   0  0  0
    2.0920   -0.0940    0.0000 F   0  0  0
    2.2095    2.0214    0.0000 F   0  0  0
    0.0940    2.1390    0.0000 C   0  0  0
   -1.3868    1.8334    0.0000 C   0  0  0
    0.5406    3.5728    0.0000 C   0  0  0
   -2.3975    2.9616    0.0000 C   0  0  0
   -2.1507    0.5406    0.0000 C   0  0  0
   -0.4701    4.7010    0.0000 C   0  0  0
   -3.7843    2.3623    0.0000 C   0  0  0
   -1.9509    4.3955    0.0000 C   0  0  0
   -3.6315    0.8697    0.0000 N   0  0  0
   -0.0235    6.1348    0.0000 C   0  0  0
   -5.1006    3.1262    0.0000 O   0  0  0
   -4.7598   -0.1175    0.0000 C   0  0  0
    1.4338    6.4639    0.0000 N   0  0  0
   -4.4542   -1.5748    0.0000 C   0  0  0
   -6.1936    0.3526    0.0000 C   0  0  0
    2.5386    5.4767    0.0000 C   0  0  0
    2.0332    7.8507    0.0000 C   0  0  0
   -5.5825   -2.5621    0.0000 C   0  0  0
   -7.3219   -0.6346    0.0000 C   0  0  0
    3.8196    6.2406    0.0000 C   0  0  2
    3.5140    7.7097    0.0000 C   0  0  0
   -7.0163   -2.0920    0.0000 C   0  0  0
   -5.2769   -4.0194    0.0000 C   0  0  1
    5.1829    5.6412    0.0000 F   0  0  0
   -6.7577   -4.3249    0.0000 F   0  0  0
   -4.9713   -5.4767    0.0000 C   0  0  0
   -3.8196   -3.6903    0.0000 C   0  0  0
   -3.5140   -5.1476    0.0000 F   0  0  0
   -6.4522   -5.7823    0.0000 F   0  0  0
   -4.6658   -6.9340    0.0000 C   0  0  0
   -5.6765   -8.0388    0.0000 N   0  0  0
   -3.3025   -7.5334    0.0000 N   0  0  0
   -4.9361   -9.3315    0.0000 N   0  0  0
   -3.4670   -9.0142    0.0000 C   0  0  0
   -2.0097   -6.7695    0.0000 C   0  0  0
  1  2  1
  2  3  1
  2  4  1
  2  5  1
  5  6  2
  5  7  1
  6  8  1
  6  9  1
  7 10  2
  8 11  1
  8 12  2
  9 13  1
 10 14  1
 11 15  2
 13 16  1
 14 17  1
 16 18  2
 16 19  1
 17 20  1
 17 21  1
 18 22  1
 19 23  2
 24 20  1
 21 25  1
 22 26  2
 27 22  1  6  0
 24 28  1  6  0
 27 29  1
 27 30  1
 27 31  1
 30 32  1
 30 33  1
 30 34  1
 34 35  2
 34 36  1
 35 37  1
 36 38  1
 36 39  1
 10 12  1
 11 13  1
 23 26  1
 24 25  1
 37 38  2
M  END
> <COMPOUND_NAMES>
Example 447 (Stereo) (Page No: 596)

> <Reference>
WO2019148005

> <IC50_range_nM>
<100

> <smiles>
C[C@@](c1cccc(c1)N1Cc2c(cc(CN3CC[C@@H](C3)F)cc2C(F)(F)F)C1=O)(C(c1nncn1C)(F)F)F

$$$$
C26H23F8N5O
  MOLSOFT 03092310482D

 40 44  0  0  1  0  0  0  0  0999 V2000
    0.0000   -0.0000    0.0000 F   0  0  0
    1.1048    1.0107    0.0000 C   0  0  0
    2.0920   -0.0940    0.0000 F   0  0  0
    2.2095    2.0215    0.0000 F   0  0  0
    0.0940    2.1390    0.0000 C   0  0  0
   -1.3868    1.8334    0.0000 C   0  0  0
    0.5406    3.5728    0.0000 C   0  0  0
   -2.3976    2.9617    0.0000 C   0  0  0
   -2.1507    0.5406    0.0000 C   0  0  0
   -0.4701    4.7011    0.0000 C   0  0  0
   -3.7844    2.3623    0.0000 C   0  0  0
   -1.9510    4.3955    0.0000 C   0  0  0
   -3.6316    0.8697    0.0000 N   0  0  0
   -0.0235    6.1349    0.0000 C   0  0  0
   -5.1007    3.1262    0.0000 O   0  0  0
   -4.7599   -0.1175    0.0000 C   0  0  0
    1.4338    6.4640    0.0000 N   0  0  0
   -4.4543   -1.5749    0.0000 C   0  0  0
   -6.1937    0.3526    0.0000 C   0  0  0
    2.0332    7.8508    0.0000 C   0  0  0
    2.5386    5.4768    0.0000 C   0  0  0
   -5.5825   -2.5621    0.0000 C   0  0  0
   -7.3219   -0.6346    0.0000 C   0  0  0
    3.5141    7.7098    0.0000 C   0  0  1
    3.8196    6.2407    0.0000 C   0  0  2
   -7.0164   -2.0920    0.0000 C   0  0  0
   -5.2770   -4.0194    0.0000 C   0  0  1
    4.5013    8.8380    0.0000 F   0  0  0
    5.1830    5.6413    0.0000 F   0  0  0
   -6.7578   -4.3250    0.0000 F   0  0  0
   -4.9714   -5.4768    0.0000 C   0  0  0
   -3.8196   -3.6904    0.0000 C   0  0  0
   -3.5141   -5.1477    0.0000 F   0  0  0
   -6.4522   -5.7823    0.0000 F   0  0  0
   -4.6658   -6.9341    0.0000 C   0  0  0
   -5.6766   -8.0389    0.0000 N   0  0  0
   -3.3025   -7.5335    0.0000 N   0  0  0
   -4.9361   -9.3317    0.0000 N   0  0  0
   -3.4671   -9.0143    0.0000 C   0  0  0
   -2.0097   -6.7696    0.0000 C   0  0  0
  1  2  1
  2  3  1
  2  4  1
  2  5  1
  5  6  2
  5  7  1
  6  8  1
  6  9  1
  7 10  2
  8 11  1
  8 12  2
  9 13  1
 10 14  1
 11 15  2
 13 16  1
 14 17  1
 16 18  2
 16 19  1
 17 20  1
 17 21  1
 18 22  1
 19 23  2
 24 20  1
 25 21  1
 22 26  2
 27 22  1  6  0
 24 28  1  6  0
 25 29  1  6  0
 27 30  1
 27 31  1
 27 32  1
 31 33  1
 31 34  1
 31 35  1
 35 36  2
 35 37  1
 36 38  1
 37 39  1
 37 40  1
 10 12  1
 11 13  1
 23 26  1
 24 25  1
 38 39  2
M  END
> <COMPOUND_NAMES>
Example 461 (Stereo) (Page No: 605)

> <Reference>
WO2019148005

> <IC50_range_nM>
<100

> <smiles>
C[C@@](c1cccc(c1)N1Cc2c(cc(CN3C[C@@H]([C@@H](C3)F)F)cc2C(F)(F)F)C1=O)(C(c1nncn1C)(F)F)F

$$$$
C27H26F7N5O
  MOLSOFT 03092310482D

 40 44  0  0  1  0  0  0  0  0999 V2000
    0.0000   -0.0000    0.0000 F   0  0  0
   -0.0118   -1.4911    0.0000 C   0  0  0
    1.4792   -1.4792    0.0000 F   0  0  0
   -1.5266   -1.4792    0.0000 F   0  0  0
   -0.0237   -2.9822    0.0000 C   0  0  0
   -1.3372   -3.7159    0.0000 C   0  0  0
    1.2662   -3.7159    0.0000 C   0  0  0
   -1.3491   -5.2069    0.0000 C   0  0  0
   -2.7810   -3.2425    0.0000 C   0  0  0
    1.2544   -5.2069    0.0000 C   0  0  0
   -2.7928   -5.6566    0.0000 C   0  0  0
   -0.0592   -5.9407    0.0000 C   0  0  0
   -3.6804   -4.4496    0.0000 N   0  0  0
    2.5443   -5.9407    0.0000 C   0  0  1
   -3.2662   -7.0767    0.0000 O   0  0  0
   -5.1951   -4.4377    0.0000 C   0  0  0
    3.8342   -5.1833    0.0000 N   0  0  0
    2.5325   -7.4317    0.0000 C   0  0  0
   -5.9525   -5.7276    0.0000 C   0  0  0
   -5.9525   -3.1242    0.0000 C   0  0  0
    5.1951   -5.7868    0.0000 C   0  0  0
    3.9762   -3.6804    0.0000 C   0  0  0
   -7.4672   -5.7158    0.0000 C   0  0  0
   -7.4672   -3.1123    0.0000 C   0  0  0
    6.1892   -4.6626    0.0000 C   0  0  2
    5.4318   -3.3608    0.0000 C   0  0  0
   -8.2246   -4.4022    0.0000 C   0  0  0
   -8.2246   -7.0057    0.0000 C   0  0  1
    7.6684   -4.8046    0.0000 F   0  0  0
   -6.9347   -7.7394    0.0000 F   0  0  0
   -8.9820   -8.2956    0.0000 C   0  0  0
   -9.5382   -6.2483    0.0000 C   0  0  0
  -10.2956   -7.5382    0.0000 F   0  0  0
   -7.6921   -9.0293    0.0000 F   0  0  0
   -9.7394   -9.5855    0.0000 C   0  0  0
   -9.1358  -10.9464    0.0000 N   0  0  0
  -11.2423   -9.7275    0.0000 N   0  0  0
  -10.2601  -11.9405    0.0000 N   0  0  0
  -11.5618  -11.1831    0.0000 C   0  0  0
  -12.2600   -8.6033    0.0000 C   0  0  0
  1  2  1
  2  3  1
  2  4  1
  2  5  1
  5  6  2
  5  7  1
  6  8  1
  6  9  1
  7 10  2
  8 11  1
  8 12  2
  9 13  1
 14 10  1
 11 15  2
 13 16  1
 14 17  1  1  0
 14 18  1
 16 19  2
 16 20  1
 17 21  1
 17 22  1
 19 23  1
 20 24  2
 25 21  1
 22 26  1
 23 27  2
 28 23  1  1  0
 25 29  1  6  0
 28 30  1
 28 31  1
 28 32  1
 31 33  1
 31 34  1
 31 35  1
 35 36  2
 35 37  1
 36 38  1
 37 39  1
 37 40  1
 10 12  1
 11 13  1
 24 27  1
 25 26  1
 38 39  2
M  END
> <COMPOUND_NAMES>
Example 460 (Stereo) (Page No: 603)

> <Reference>
WO2019148005

> <IC50_range_nM>
<100

> <smiles>
C[C@@H](c1cc2C(N(Cc2c(c1)C(F)(F)F)c1cccc(c1)[C@](C)(C(c1nncn1C)(F)F)F)=O)N1CC[C@@H](C1)F

$$$$
C27H26F7N5O
  MOLSOFT 03092310482D

 40 44  0  0  1  0  0  0  0  0999 V2000
    0.0000   -0.0000    0.0000 F   0  0  0
   -0.0118   -1.4911    0.0000 C   0  0  0
    1.4792   -1.4792    0.0000 F   0  0  0
   -1.5266   -1.4792    0.0000 F   0  0  0
   -0.0237   -2.9822    0.0000 C   0  0  0
   -1.3372   -3.7159    0.0000 C   0  0  0
    1.2662   -3.7159    0.0000 C   0  0  0
   -1.3491   -5.2069    0.0000 C   0  0  0
   -2.7810   -3.2425    0.0000 C   0  0  0
    1.2544   -5.2069    0.0000 C   0  0  0
   -2.7928   -5.6566    0.0000 C   0  0  0
   -0.0592   -5.9407    0.0000 C   0  0  0
   -3.6804   -4.4496    0.0000 N   0  0  0
    2.5443   -5.9407    0.0000 C   0  0  2
   -3.2662   -7.0767    0.0000 O   0  0  0
   -5.1951   -4.4377    0.0000 C   0  0  0
    3.8342   -5.1833    0.0000 N   0  0  0
    2.5325   -7.4317    0.0000 C   0  0  0
   -5.9525   -5.7276    0.0000 C   0  0  0
   -5.9525   -3.1242    0.0000 C   0  0  0
    5.1951   -5.7868    0.0000 C   0  0  0
    3.9762   -3.6804    0.0000 C   0  0  0
   -7.4672   -5.7158    0.0000 C   0  0  0
   -7.4672   -3.1123    0.0000 C   0  0  0
    6.1892   -4.6626    0.0000 C   0  0  2
    5.4318   -3.3608    0.0000 C   0  0  0
   -8.2246   -4.4022    0.0000 C   0  0  0
   -8.2246   -7.0057    0.0000 C   0  0  1
    7.6684   -4.8046    0.0000 F   0  0  0
   -6.9347   -7.7394    0.0000 F   0  0  0
   -8.9820   -8.2956    0.0000 C   0  0  0
   -9.5382   -6.2483    0.0000 C   0  0  0
  -10.2956   -7.5382    0.0000 F   0  0  0
   -7.6921   -9.0293    0.0000 F   0  0  0
   -9.7394   -9.5855    0.0000 C   0  0  0
   -9.1358  -10.9464    0.0000 N   0  0  0
  -11.2423   -9.7275    0.0000 N   0  0  0
  -10.2601  -11.9405    0.0000 N   0  0  0
  -11.5618  -11.1831    0.0000 C   0  0  0
  -12.2600   -8.6033    0.0000 C   0  0  0
  1  2  1
  2  3  1
  2  4  1
  2  5  1
  5  6  2
  5  7  1
  6  8  1
  6  9  1
  7 10  2
  8 11  1
  8 12  2
  9 13  1
 14 10  1
 11 15  2
 13 16  1
 14 17  1  6  0
 14 18  1
 16 19  2
 16 20  1
 17 21  1
 17 22  1
 19 23  1
 20 24  2
 25 21  1
 22 26  1
 23 27  2
 28 23  1  1  0
 25 29  1  6  0
 28 30  1
 28 31  1
 28 32  1
 31 33  1
 31 34  1
 31 35  1
 35 36  2
 35 37  1
 36 38  1
 37 39  1
 37 40  1
 10 12  1
 11 13  1
 24 27  1
 25 26  1
 38 39  2
M  END
> <COMPOUND_NAMES>
Example 459 (Stereo) (Page No: 603)

> <Reference>
WO2019148005

> <IC50_range_nM>
<100

> <smiles>
C[C@H](c1cc2C(N(Cc2c(c1)C(F)(F)F)c1cccc(c1)[C@](C)(C(c1nncn1C)(F)F)F)=O)N1CC[C@@H](C1)F

$$$$
C26H23F8N5O
  MOLSOFT 03092310482D

 40 44  0  0  1  0  0  0  0  0999 V2000
    0.0000   -0.0000    0.0000 F   0  0  0
   -0.8941    1.2235    0.0000 C   0  0  0
    0.5882    1.3882    0.0000 F   0  0  0
   -2.1999    0.4823    0.0000 C   0  0  0
   -1.2235    2.7057    0.0000 C   0  0  0
   -3.3292    1.4940    0.0000 N   0  0  0
   -2.7293    2.8704    0.0000 C   0  0  0
   -4.8115    1.1882    0.0000 C   0  0  0
   -5.2821   -0.2235    0.0000 C   0  0  0
   -4.2939   -1.3293    0.0000 C   0  0  0
   -6.7643   -0.5294    0.0000 C   0  0  0
   -4.7644   -2.7410    0.0000 C   0  0  0
   -7.2349   -1.9411    0.0000 C   0  0  0
   -6.2467   -3.0469    0.0000 C   0  0  0
   -3.7763   -3.8468    0.0000 C   0  0  0
   -8.6230   -2.5410    0.0000 C   0  0  0
   -7.0114   -4.3409    0.0000 C   0  0  0
   -4.9056   -4.8350    0.0000 F   0  0  0
   -2.7881   -4.9527    0.0000 F   0  0  0
   -2.6704   -2.8351    0.0000 F   0  0  0
   -9.9406   -1.7764    0.0000 O   0  0  0
   -8.4819   -4.0233    0.0000 N   0  0  0
   -9.6112   -5.0115    0.0000 C   0  0  0
   -9.3054   -6.4702    0.0000 C   0  0  0
  -11.0464   -4.5409    0.0000 C   0  0  0
  -10.4347   -7.4584    0.0000 C   0  0  0
  -12.1758   -5.5291    0.0000 C   0  0  0
  -11.8699   -6.9878    0.0000 C   0  0  0
  -10.1288   -8.9172    0.0000 C   0  0  1
  -11.6111   -9.2230    0.0000 F   0  0  0
   -9.8230  -10.3759    0.0000 C   0  0  0
   -8.6701   -8.5878    0.0000 C   0  0  0
   -8.3642  -10.0465    0.0000 F   0  0  0
  -11.3053  -10.6818    0.0000 F   0  0  0
   -9.5171  -11.8346    0.0000 C   0  0  0
  -10.5288  -12.9405    0.0000 N   0  0  0
   -8.1525  -12.4346    0.0000 N   0  0  0
   -9.7877  -14.2345    0.0000 N   0  0  0
   -8.3172  -13.9169    0.0000 C   0  0  0
   -6.8584  -11.6699    0.0000 C   0  0  0
  1  2  1
  2  3  1
  2  4  1
  2  5  1
  4  6  1
  5  7  1
  6  8  1
  8  9  1
  9 10  2
  9 11  1
 10 12  1
 11 13  2
 12 14  2
 12 15  1
 13 16  1
 14 17  1
 15 18  1
 15 19  1
 15 20  1
 16 21  2
 16 22  1
 22 23  1
 23 24  2
 23 25  1
 24 26  1
 25 27  2
 26 28  2
 29 26  1  6  0
 29 30  1
 29 31  1
 29 32  1
 31 33  1
 31 34  1
 31 35  1
 35 36  2
 35 37  1
 36 38  1
 37 39  1
 37 40  1
  6  7  1
 13 14  1
 17 22  1
 27 28  1
 38 39  2
M  END
> <COMPOUND_NAMES>
Example 448 (R) (Page No: 598)

> <Reference>
WO2019148005

> <IC50_range_nM>
<100

> <smiles>
C[C@@](c1cccc(c1)N1Cc2c(cc(CN3CCC(C3)(F)F)cc2C(F)(F)F)C1=O)(C(c1nncn1C)(F)F)F

$$$$
C27H25F6N5O
  MOLSOFT 03092310482D

 39 44  0  0  1  0  0  0  0  0999 V2000
    0.0000   -0.0000    0.0000 F   0  0  0
    1.0966    1.0291    0.0000 C   0  0  0
    2.0920   -0.0675    0.0000 F   0  0  0
    2.1933    2.0583    0.0000 F   0  0  0
    0.0675    2.1595    0.0000 C   0  0  0
   -1.4172    1.8558    0.0000 C   0  0  0
    0.5061    3.6104    0.0000 C   0  0  0
   -2.4463    2.9862    0.0000 C   0  0  0
   -2.1933    0.5736    0.0000 C   0  0  0
   -0.5230    4.7408    0.0000 C   0  0  0
   -3.8298    2.3957    0.0000 C   0  0  0
   -2.0077    4.4371    0.0000 C   0  0  0
   -3.6779    0.9110    0.0000 N   0  0  0
   -0.0844    6.1917    0.0000 C   0  0  0
   -5.1457    3.1718    0.0000 O   0  0  0
   -4.8083   -0.0844    0.0000 C   0  0  0
   -1.1135    7.3221    0.0000 N   0  0  0
   -4.5046   -1.5353    0.0000 C   0  0  0
   -6.2592    0.3880    0.0000 C   0  0  0
   -0.8267    8.8068    0.0000 C   0  0  0
   -2.6319    7.1871    0.0000 C   0  0  0
   -5.6350   -2.5307    0.0000 C   0  0  0
   -7.3896   -0.6074    0.0000 C   0  0  0
   -2.1426    9.5828    0.0000 C   0  0  2
   -3.2561    8.5706    0.0000 C   0  0  0
   -7.0859   -2.0583    0.0000 C   0  0  0
   -5.4663   -3.3911    0.0000 C   0  0  0
   -2.3114   11.1012    0.0000 F   0  0  0
   -7.6258   -2.6825    0.0000 C   0  0  0
   -4.4709   -4.4877    0.0000 C   0  0  0
   -5.9387   -4.8083    0.0000 C   0  0  0
   -8.0982   -4.0997    0.0000 F   0  0  0
   -7.3727   -1.8052    0.0000 F   0  0  0
   -9.0767   -2.2101    0.0000 C   0  0  0
   -9.5491   -0.7592    0.0000 N   0  0  0
  -10.3083   -3.0706    0.0000 N   0  0  0
  -11.0675   -0.7423    0.0000 N   0  0  0
  -11.5399   -2.1764    0.0000 C   0  0  0
  -10.3252   -4.5552    0.0000 C   0  0  0
  1  2  1
  2  3  1
  2  4  1
  2  5  1
  5  6  2
  5  7  1
  6  8  1
  6  9  1
  7 10  2
  8 11  1
  8 12  2
  9 13  1
 10 14  1
 11 15  2
 13 16  1
 14 17  1
 16 18  2
 16 19  1
 17 20  1
 17 21  1
 18 22  1
 19 23  2
 24 20  1
 21 25  1
 22 26  2
 22 27  1
 24 28  1  6  0
 27 29  1
 27 30  1
 27 31  1
 29 32  1
 29 33  1
 29 34  1
 34 35  2
 34 36  1
 35 37  1
 36 38  1
 36 39  1
 10 12  1
 11 13  1
 23 26  1
 24 25  1
 30 31  1
 37 38  2
M  END
> <COMPOUND_NAMES>
Example 462 (S) (Page No: 606)

> <Reference>
WO2019148005

> <IC50_range_nM>
<100

> <smiles>
Cn1cnnc1C(C1(CC1)c1cccc(c1)N1Cc2c(cc(CN3CC[C@@H](C3)F)cc2C(F)(F)F)C1=O)(F)F

$$$$
C26H22F6N6O
  MOLSOFT 03092310482D

 39 43  0  0  1  0  0  0  0  0999 V2000
    0.0000   -0.0000    0.0000 F   0  0  0
    1.1033    1.0094    0.0000 C   0  0  0
    2.1009   -0.0939    0.0000 F   0  0  0
    2.2066    2.0305    0.0000 F   0  0  0
    0.0822    2.1361    0.0000 C   0  0  0
   -1.3967    1.8310    0.0000 C   0  0  0
    0.5282    3.5681    0.0000 C   0  0  0
   -2.4178    2.9577    0.0000 C   0  0  0
   -2.1596    0.5399    0.0000 C   0  0  0
   -0.4930    4.6948    0.0000 C   0  0  0
   -3.8028    2.3592    0.0000 C   0  0  0
   -1.9718    4.3897    0.0000 C   0  0  0
   -3.6385    0.8685    0.0000 N   0  0  0
   -0.0469    6.1268    0.0000 C   0  0  0
   -5.1174    3.1221    0.0000 O   0  0  0
   -4.7653   -0.1291    0.0000 C   0  0  0
    1.4085    6.4554    0.0000 N   0  0  0
   -4.4601   -1.5845    0.0000 C   0  0  0
   -6.1972    0.3404    0.0000 C   0  0  0
    2.2183    7.7230    0.0000 C   0  0  0
    2.6526    5.6455    0.0000 C   0  0  0
   -5.5869   -2.5704    0.0000 C   0  0  0
   -7.3239   -0.6573    0.0000 C   0  0  0
    3.4624    6.9131    0.0000 C   0  0  0
   -7.0305   -2.1009    0.0000 C   0  0  0
   -5.2817   -4.0258    0.0000 C   0  0  1
    4.9178    7.2418    0.0000 C   0  0  0
   -6.7606   -4.3310    0.0000 F   0  0  0
   -4.9765   -5.4812    0.0000 C   0  0  0
   -3.8263   -3.6972    0.0000 C   0  0  0
    6.3732    7.5704    0.0000 N   0  0  0
   -3.5211   -5.1526    0.0000 F   0  0  0
   -6.4554   -5.7864    0.0000 F   0  0  0
   -4.6714   -6.9366    0.0000 C   0  0  0
   -5.6925   -8.0399    0.0000 N   0  0  0
   -3.3099   -7.5352    0.0000 N   0  0  0
   -4.9530   -9.3310    0.0000 N   0  0  0
   -3.4742   -9.0141    0.0000 C   0  0  0
   -2.0188   -6.7723    0.0000 C   0  0  0
  1  2  1
  2  3  1
  2  4  1
  2  5  1
  5  6  2
  5  7  1
  6  8  1
  6  9  1
  7 10  2
  8 11  1
  8 12  2
  9 13  1
 10 14  1
 11 15  2
 13 16  1
 14 17  1
 16 18  2
 16 19  1
 17 20  1
 17 21  1
 18 22  1
 19 23  2
 20 24  1
 22 25  2
 26 22  1  6  0
 24 27  1
 26 28  1
 26 29  1
 26 30  1
 27 31  3
 29 32  1
 29 33  1
 29 34  1
 34 35  2
 34 36  1
 35 37  1
 36 38  1
 36 39  1
 10 12  1
 11 13  1
 21 24  1
 23 25  1
 37 38  2
M  END
> <COMPOUND_NAMES>
Example 456 (R) (Page No: 602)

> <Reference>
WO2019148005

> <IC50_range_nM>
101-300

> <smiles>
C[C@@](c1cccc(c1)N1Cc2c(cc(CN3CC(C3)C#N)cc2C(F)(F)F)C1=O)(C(c1nncn1C)(F)F)F

$$$$
C27H24F6N6O
  MOLSOFT 03092310482D

 40 44  0  0  1  0  0  0  0  0999 V2000
    0.0000   -0.0000    0.0000 F   0  0  0
    1.1049    1.0109    0.0000 C   0  0  0
    2.0923   -0.0940    0.0000 F   0  0  0
    2.2098    2.0218    0.0000 F   0  0  0
    0.0940    2.1393    0.0000 C   0  0  0
   -1.3870    1.8337    0.0000 C   0  0  0
    0.5407    3.5734    0.0000 C   0  0  0
   -2.3979    2.9621    0.0000 C   0  0  0
   -2.1511    0.5407    0.0000 C   0  0  0
   -0.4702    4.7018    0.0000 C   0  0  0
   -3.7849    2.3627    0.0000 C   0  0  0
   -1.9512    4.3962    0.0000 C   0  0  0
   -3.6321    0.8698    0.0000 N   0  0  0
   -0.0235    6.1358    0.0000 C   0  0  0
   -5.1014    3.1267    0.0000 O   0  0  0
   -4.7606   -0.1175    0.0000 C   0  0  0
    1.4340    6.4650    0.0000 N   0  0  0
   -4.4550   -1.5751    0.0000 C   0  0  0
   -6.1946    0.3526    0.0000 C   0  0  0
    2.5390    5.4776    0.0000 C   0  0  0
    2.0335    7.8520    0.0000 C   0  0  0
   -5.5834   -2.5625    0.0000 C   0  0  0
   -7.3230   -0.6347    0.0000 C   0  0  0
    3.8202    6.2416    0.0000 C   0  0  1
    3.5146    7.7109    0.0000 C   0  0  0
   -7.0174   -2.0923    0.0000 C   0  0  0
   -5.2778   -4.0200    0.0000 C   0  0  1
    5.1837    5.6422    0.0000 C   0  0  0
   -6.7588   -4.3257    0.0000 F   0  0  0
   -4.9721   -5.4776    0.0000 C   0  0  0
   -3.8202   -3.6909    0.0000 C   0  0  0
    6.5473    5.0427    0.0000 N   0  0  0
   -3.5146   -5.1485    0.0000 F   0  0  0
   -6.4532   -5.7832    0.0000 F   0  0  0
   -4.6665   -6.9351    0.0000 C   0  0  0
   -5.6774   -8.0401    0.0000 N   0  0  0
   -3.3030   -7.5346    0.0000 N   0  0  0
   -4.9369   -9.3331    0.0000 N   0  0  0
   -3.4676   -9.0157    0.0000 C   0  0  0
   -2.0100   -6.7706    0.0000 C   0  0  0
  1  2  1
  2  3  1
  2  4  1
  2  5  1
  5  6  2
  5  7  1
  6  8  1
  6  9  1
  7 10  2
  8 11  1
  8 12  2
  9 13  1
 10 14  1
 11 15  2
 13 16  1
 14 17  1
 16 18  2
 16 19  1
 17 20  1
 17 21  1
 18 22  1
 19 23  2
 24 20  1
 21 25  1
 22 26  2
 27 22  1  6  0
 24 28  1  1  0
 27 29  1
 27 30  1
 27 31  1
 28 32  3
 30 33  1
 30 34  1
 30 35  1
 35 36  2
 35 37  1
 36 38  1
 37 39  1
 37 40  1
 10 12  1
 11 13  1
 23 26  1
 24 25  1
 38 39  2
M  END
> <COMPOUND_NAMES>
Example 455 (Stereo) (Page No: 601)

> <Reference>
WO2019148005

> <IC50_range_nM>
<100

> <smiles>
C[C@@](c1cccc(c1)N1Cc2c(cc(CN3CC[C@H](C3)C#N)cc2C(F)(F)F)C1=O)(C(c1nncn1C)(F)F)F

$$$$
C27H24F6N6O
  MOLSOFT 03092310482D

 40 44  0  0  1  0  0  0  0  0999 V2000
    0.0000   -0.0000    0.0000 F   0  0  0
    1.1049    1.0109    0.0000 C   0  0  0
    2.0923   -0.0940    0.0000 F   0  0  0
    2.2098    2.0218    0.0000 F   0  0  0
    0.0940    2.1393    0.0000 C   0  0  0
   -1.3870    1.8337    0.0000 C   0  0  0
    0.5407    3.5734    0.0000 C   0  0  0
   -2.3979    2.9621    0.0000 C   0  0  0
   -2.1511    0.5407    0.0000 C   0  0  0
   -0.4702    4.7018    0.0000 C   0  0  0
   -3.7849    2.3627    0.0000 C   0  0  0
   -1.9512    4.3962    0.0000 C   0  0  0
   -3.6321    0.8698    0.0000 N   0  0  0
   -0.0235    6.1358    0.0000 C   0  0  0
   -5.1014    3.1267    0.0000 O   0  0  0
   -4.7606   -0.1175    0.0000 C   0  0  0
    1.4340    6.4650    0.0000 N   0  0  0
   -4.4550   -1.5751    0.0000 C   0  0  0
   -6.1946    0.3526    0.0000 C   0  0  0
    2.5390    5.4776    0.0000 C   0  0  0
    2.0335    7.8520    0.0000 C   0  0  0
   -5.5834   -2.5625    0.0000 C   0  0  0
   -7.3230   -0.6347    0.0000 C   0  0  0
    3.8202    6.2416    0.0000 C   0  0  2
    3.5146    7.7109    0.0000 C   0  0  0
   -7.0174   -2.0923    0.0000 C   0  0  0
   -5.2778   -4.0200    0.0000 C   0  0  1
    5.1837    5.6422    0.0000 C   0  0  0
   -6.7588   -4.3257    0.0000 F   0  0  0
   -4.9721   -5.4776    0.0000 C   0  0  0
   -3.8202   -3.6909    0.0000 C   0  0  0
    6.5473    5.0427    0.0000 N   0  0  0
   -3.5146   -5.1485    0.0000 F   0  0  0
   -6.4532   -5.7832    0.0000 F   0  0  0
   -4.6665   -6.9351    0.0000 C   0  0  0
   -5.6774   -8.0401    0.0000 N   0  0  0
   -3.3030   -7.5346    0.0000 N   0  0  0
   -4.9369   -9.3331    0.0000 N   0  0  0
   -3.4676   -9.0157    0.0000 C   0  0  0
   -2.0100   -6.7706    0.0000 C   0  0  0
  1  2  1
  2  3  1
  2  4  1
  2  5  1
  5  6  2
  5  7  1
  6  8  1
  6  9  1
  7 10  2
  8 11  1
  8 12  2
  9 13  1
 10 14  1
 11 15  2
 13 16  1
 14 17  1
 16 18  2
 16 19  1
 17 20  1
 17 21  1
 18 22  1
 19 23  2
 24 20  1
 21 25  1
 22 26  2
 27 22  1  6  0
 24 28  1  6  0
 27 29  1
 27 30  1
 27 31  1
 28 32  3
 30 33  1
 30 34  1
 30 35  1
 35 36  2
 35 37  1
 36 38  1
 37 39  1
 37 40  1
 10 12  1
 11 13  1
 23 26  1
 24 25  1
 38 39  2
M  END
> <COMPOUND_NAMES>
Example 454 (Stereo) (Page No: 601)

> <Reference>
WO2019148005

> <IC50_range_nM>
<100

> <smiles>
C[C@@](c1cccc(c1)N1Cc2c(cc(CN3CC[C@@H](C3)C#N)cc2C(F)(F)F)C1=O)(C(c1nncn1C)(F)F)F

$$$$
C26H25F6N5O2
  MOLSOFT 03092310482D

 39 43  0  0  1  0  0  0  0  0999 V2000
    0.0000   -0.0000    0.0000 F   0  0  0
   -1.4621   -0.3773    0.0000 C   0  0  0
   -1.8630    1.0848    0.0000 F   0  0  0
   -2.9242   -0.7546    0.0000 F   0  0  0
   -1.0848   -1.8158    0.0000 C   0  0  0
   -2.1578   -2.8653    0.0000 C   0  0  0
    0.3537   -2.1932    0.0000 C   0  0  0
   -1.7805   -4.3038    0.0000 C   0  0  0
   -3.6671   -2.7709    0.0000 C   0  0  0
    0.7311   -3.6317    0.0000 C   0  0  0
   -3.0539   -5.1056    0.0000 C   0  0  0
   -0.3419   -4.6811    0.0000 C   0  0  0
   -4.2212   -4.1623    0.0000 N   0  0  0
    2.1696   -4.0090    0.0000 C   0  0  0
   -3.1482   -6.5913    0.0000 O   0  0  0
   -5.6833   -4.5396    0.0000 C   0  0  0
    3.2190   -2.9360    0.0000 N   0  0  0
   -6.0842   -5.9781    0.0000 C   0  0  0
   -6.7563   -3.4666    0.0000 C   0  0  0
    4.7047   -2.9242    0.0000 C   0  0  0
    3.2072   -1.4267    0.0000 C   0  0  0
   -7.5464   -6.3554    0.0000 C   0  0  0
   -8.2184   -3.8439    0.0000 C   0  0  0
    4.6929   -1.4149    0.0000 C   0  0  0
   -8.6193   -5.2824    0.0000 C   0  0  0
   -7.9473   -7.7940    0.0000 C   0  0  1
    5.7423   -0.3419    0.0000 O   0  0  0
   -6.5087   -8.1713    0.0000 F   0  0  0
   -8.3482   -9.2325    0.0000 C   0  0  0
   -9.4094   -7.3931    0.0000 C   0  0  0
    5.3414    1.1202    0.0000 C   0  0  0
   -9.8103   -8.8316    0.0000 F   0  0  0
   -6.9096   -9.6098    0.0000 F   0  0  0
   -8.7490  -10.6710    0.0000 C   0  0  0
   -7.8175  -11.8265    0.0000 N   0  0  0
  -10.1640  -11.1898    0.0000 N   0  0  0
   -8.6429  -13.0764    0.0000 N   0  0  0
  -10.0932  -12.6755    0.0000 C   0  0  0
  -11.4256  -10.3644    0.0000 C   0  0  0
  1  2  1
  2  3  1
  2  4  1
  2  5  1
  5  6  2
  5  7  1
  6  8  1
  6  9  1
  7 10  2
  8 11  1
  8 12  2
  9 13  1
 10 14  1
 11 15  2
 13 16  1
 14 17  1
 16 18  2
 16 19  1
 17 20  1
 17 21  1
 18 22  1
 19 23  2
 20 24  1
 22 25  2
 26 22  1  1  0
 24 27  1
 26 28  1
 26 29  1
 26 30  1
 27 31  1
 29 32  1
 29 33  1
 29 34  1
 34 35  2
 34 36  1
 35 37  1
 36 38  1
 36 39  1
 10 12  1
 11 13  1
 21 24  1
 23 25  1
 37 38  2
M  END
> <COMPOUND_NAMES>
Example 452 (R) (Page No: 600)

> <Reference>
WO2019148005

> <IC50_range_nM>
<100

> <smiles>
C[C@@](c1cccc(c1)N1Cc2c(cc(CN3CC(C3)OC)cc2C(F)(F)F)C1=O)(C(c1nncn1C)(F)F)F

$$$$
C26H23F8N5O
  MOLSOFT 03092310482D

 40 44  0  0  1  0  0  0  0  0999 V2000
    0.0000   -0.0000    0.0000 F   0  0  0
    1.1032    1.0093    0.0000 C   0  0  0
    2.1007   -0.0939    0.0000 F   0  0  0
    2.2064    2.0303    0.0000 F   0  0  0
    0.0822    2.1359    0.0000 C   0  0  0
   -1.3966    1.8308    0.0000 C   0  0  0
    0.5281    3.5677    0.0000 C   0  0  0
   -2.4176    2.9575    0.0000 C   0  0  0
   -2.1594    0.5399    0.0000 C   0  0  0
   -0.4929    4.6944    0.0000 C   0  0  0
   -3.8024    2.3589    0.0000 C   0  0  0
   -1.9716    4.3892    0.0000 C   0  0  0
   -3.6381    0.8685    0.0000 N   0  0  0
   -0.0469    6.1262    0.0000 C   0  0  0
   -5.1169    3.1218    0.0000 O   0  0  0
   -4.7648   -0.1291    0.0000 C   0  0  0
    1.4083    6.4548    0.0000 N   0  0  0
   -4.4597   -1.5844    0.0000 C   0  0  0
   -6.1966    0.3403    0.0000 C   0  0  0
    2.2181    7.7223    0.0000 C   0  0  0
    2.6523    5.6450    0.0000 C   0  0  0
   -5.5863   -2.5702    0.0000 C   0  0  0
   -7.3232   -0.6572    0.0000 C   0  0  0
    3.4621    6.9125    0.0000 C   0  0  0
   -7.0298   -2.1007    0.0000 C   0  0  0
   -5.2812   -4.0254    0.0000 C   0  0  1
    4.9174    7.2411    0.0000 C   0  0  0
   -6.7599   -4.3306    0.0000 F   0  0  0
   -4.9760   -5.4807    0.0000 C   0  0  0
   -3.8259   -3.6968    0.0000 C   0  0  0
    5.9149    6.1379    0.0000 F   0  0  0
    5.3633    8.6846    0.0000 F   0  0  0
   -3.5208   -5.1521    0.0000 F   0  0  0
   -6.4548   -5.7858    0.0000 F   0  0  0
   -4.6709   -6.9359    0.0000 C   0  0  0
   -5.6919   -8.0391    0.0000 N   0  0  0
   -3.3095   -7.5345    0.0000 N   0  0  0
   -4.9526   -9.3301    0.0000 N   0  0  0
   -3.4738   -9.0132    0.0000 C   0  0  0
   -2.0186   -6.7716    0.0000 C   0  0  0
  1  2  1
  2  3  1
  2  4  1
  2  5  1
  5  6  2
  5  7  1
  6  8  1
  6  9  1
  7 10  2
  8 11  1
  8 12  2
  9 13  1
 10 14  1
 11 15  2
 13 16  1
 14 17  1
 16 18  2
 16 19  1
 17 20  1
 17 21  1
 18 22  1
 19 23  2
 20 24  1
 22 25  2
 26 22  1  6  0
 24 27  1
 26 28  1
 26 29  1
 26 30  1
 27 31  1
 27 32  1
 29 33  1
 29 34  1
 29 35  1
 35 36  2
 35 37  1
 36 38  1
 37 39  1
 37 40  1
 10 12  1
 11 13  1
 21 24  1
 23 25  1
 38 39  2
M  END
> <COMPOUND_NAMES>
Example 453 (R) (Page No: 600)

> <Reference>
WO2019148005

> <IC50_range_nM>
<100

> <smiles>
C[C@@](c1cccc(c1)N1Cc2c(cc(CN3CC(C3)C(F)F)cc2C(F)(F)F)C1=O)(C(c1nncn1C)(F)F)F

$$$$
C26H21F8N5O2
  MOLSOFT 03092310482D

 41 45  0  0  1  0  0  0  0  0999 V2000
    0.0000   -0.0000    0.0000 F   0  0  0
    1.1030    1.0091    0.0000 C   0  0  0
    2.1003   -0.0939    0.0000 F   0  0  0
    2.2059    2.0299    0.0000 F   0  0  0
    0.0821    2.1355    0.0000 C   0  0  0
   -1.3963    1.8305    0.0000 C   0  0  0
    0.5280    3.5671    0.0000 C   0  0  0
   -2.4172    2.9569    0.0000 C   0  0  0
   -2.1590    0.5398    0.0000 C   0  0  0
   -0.4928    4.6935    0.0000 C   0  0  0
   -3.8017    2.3585    0.0000 C   0  0  0
   -1.9713    4.3884    0.0000 C   0  0  0
   -3.6375    0.8683    0.0000 N   0  0  0
   -0.0469    6.1250    0.0000 C   0  0  0
   -5.1159    3.1212    0.0000 O   0  0  0
   -4.7639   -0.1291    0.0000 C   0  0  0
   -1.0560    7.2515    0.0000 O   0  0  0
    1.4081    6.4536    0.0000 N   0  0  0
   -4.4588   -1.5841    0.0000 C   0  0  0
   -6.1954    0.3403    0.0000 C   0  0  0
    2.2177    7.7208    0.0000 C   0  0  0
    2.6518    5.6439    0.0000 C   0  0  0
   -5.5853   -2.5697    0.0000 C   0  0  0
   -7.3219   -0.6571    0.0000 C   0  0  0
    3.4615    6.9112    0.0000 C   0  0  0
   -7.0285   -2.1003    0.0000 C   0  0  0
   -5.2802   -4.0247    0.0000 C   0  0  1
    4.9164    7.2397    0.0000 C   0  0  0
   -6.7586   -4.3298    0.0000 F   0  0  0
   -4.9751   -5.4797    0.0000 C   0  0  0
   -3.8252   -3.6961    0.0000 C   0  0  0
    5.9138    6.1368    0.0000 F   0  0  0
    5.3623    8.6830    0.0000 F   0  0  0
   -3.5201   -5.1511    0.0000 F   0  0  0
   -6.4536   -5.7847    0.0000 F   0  0  0
   -4.6700   -6.9346    0.0000 C   0  0  0
   -5.6909   -8.0376    0.0000 N   0  0  0
   -3.3089   -7.5331    0.0000 N   0  0  0
   -4.9516   -9.3283    0.0000 N   0  0  0
   -3.4732   -9.0115    0.0000 C   0  0  0
   -2.0182   -6.7704    0.0000 C   0  0  0
  1  2  1
  2  3  1
  2  4  1
  2  5  1
  5  6  2
  5  7  1
  6  8  1
  6  9  1
  7 10  2
  8 11  1
  8 12  2
  9 13  1
 10 14  1
 11 15  2
 13 16  1
 14 17  2
 14 18  1
 16 19  2
 16 20  1
 18 21  1
 18 22  1
 19 23  1
 20 24  2
 21 25  1
 23 26  2
 27 23  1  6  0
 25 28  1
 27 29  1
 27 30  1
 27 31  1
 28 32  1
 28 33  1
 30 34  1
 30 35  1
 30 36  1
 36 37  2
 36 38  1
 37 39  1
 38 40  1
 38 41  1
 10 12  1
 11 13  1
 22 25  1
 24 26  1
 39 40  2
M  END
> <COMPOUND_NAMES>
Example 439 (R) (Page No: 592)

> <Reference>
WO2019148005

> <IC50_range_nM>
301-1000

> <smiles>
C[C@@](c1cccc(c1)N1Cc2c(cc(cc2C(F)(F)F)C(N2CC(C2)C(F)F)=O)C1=O)(C(c1nncn1C)(F)F)F

$$$$
C26H23F6N5O3
  MOLSOFT 03092310482D

 40 44  0  0  1  0  0  0  0  0999 V2000
    0.0000   -0.0000    0.0000 F   0  0  0
    1.1045    1.0105    0.0000 C   0  0  0
    2.0915   -0.0940    0.0000 F   0  0  0
    2.2090    2.0210    0.0000 F   0  0  0
    0.0940    2.1385    0.0000 C   0  0  0
   -1.3865    1.8330    0.0000 C   0  0  0
    0.5405    3.5720    0.0000 C   0  0  0
   -2.3970    2.9610    0.0000 C   0  0  0
   -2.1502    0.5405    0.0000 C   0  0  0
   -0.4700    4.7000    0.0000 C   0  0  0
   -3.7835    2.3617    0.0000 C   0  0  0
   -1.9505    4.3945    0.0000 C   0  0  0
   -3.6307    0.8695    0.0000 N   0  0  0
   -0.0235    6.1335    0.0000 C   0  0  0
   -5.0995    3.1255    0.0000 O   0  0  0
   -4.7587   -0.1175    0.0000 C   0  0  0
   -1.0340    7.2615    0.0000 O   0  0  0
    1.4335    6.4625    0.0000 N   0  0  0
   -4.4532   -1.5745    0.0000 C   0  0  0
   -6.1922    0.3525    0.0000 C   0  0  0
    2.5380    5.4755    0.0000 C   0  0  0
    2.0327    7.8490    0.0000 C   0  0  0
   -5.5812   -2.5615    0.0000 C   0  0  0
   -7.3202   -0.6345    0.0000 C   0  0  0
    3.8187    6.2392    0.0000 C   0  0  2
    3.5132    7.7080    0.0000 C   0  0  0
   -7.0147   -2.0915    0.0000 C   0  0  0
   -5.2757   -4.0185    0.0000 C   0  0  1
    5.1817    5.6400    0.0000 O   0  0  0
   -6.7562   -4.3240    0.0000 F   0  0  0
   -4.9702   -5.4755    0.0000 C   0  0  0
   -3.8187   -3.6895    0.0000 C   0  0  0
   -3.5132   -5.1465    0.0000 F   0  0  0
   -6.4507   -5.7810    0.0000 F   0  0  0
   -4.6647   -6.9325    0.0000 C   0  0  0
   -5.6752   -8.0370    0.0000 N   0  0  0
   -3.3017   -7.5317    0.0000 N   0  0  0
   -4.9350   -9.3295    0.0000 N   0  0  0
   -3.4662   -9.0122    0.0000 C   0  0  0
   -2.0092   -6.7680    0.0000 C   0  0  0
  1  2  1
  2  3  1
  2  4  1
  2  5  1
  5  6  2
  5  7  1
  6  8  1
  6  9  1
  7 10  2
  8 11  1
  8 12  2
  9 13  1
 10 14  1
 11 15  2
 13 16  1
 14 17  2
 14 18  1
 16 19  2
 16 20  1
 18 21  1
 18 22  1
 19 23  1
 20 24  2
 25 21  1
 22 26  1
 23 27  2
 28 23  1  6  0
 25 29  1  6  0
 28 30  1
 28 31  1
 28 32  1
 31 33  1
 31 34  1
 31 35  1
 35 36  2
 35 37  1
 36 38  1
 37 39  1
 37 40  1
 10 12  1
 11 13  1
 24 27  1
 25 26  1
 38 39  2
M  END
> <COMPOUND_NAMES>
Example 438 (Stereo) (Page No: 591)

> <Reference>
WO2019148005

> <IC50_range_nM>
<100

> <smiles>
C[C@@](c1cccc(c1)N1Cc2c(cc(cc2C(F)(F)F)C(N2CC[C@@H](C2)O)=O)C1=O)(C(c1nncn1C)(F)F)F

$$$$
C27H27F6N5O3S
  MOLSOFT 03092310482D

 42 46  0  0  1  0  0  0  0  0999 V2000
    0.0000   -0.0000    0.0000 S   0  0  0
    1.3643   -0.5998    0.0000 O   0  0  0
    0.5998    1.3878    0.0000 O   0  0  0
   -1.3878    0.6233    0.0000 C   0  0  1
   -0.6233   -1.3643    0.0000 C   0  0  0
   -2.6933   -0.1176    0.0000 C   0  0  0
   -1.7171    2.1052    0.0000 C   0  0  0
   -3.8223    0.8938    0.0000 N   0  0  0
   -3.2225    2.2699    0.0000 C   0  0  0
   -5.3042    0.5880    0.0000 C   0  0  0
   -5.7746   -0.8233    0.0000 C   0  0  0
   -4.7867   -1.9288    0.0000 C   0  0  0
   -7.2565   -1.1290    0.0000 C   0  0  0
   -5.2571   -3.3401    0.0000 C   0  0  0
   -7.7269   -2.5404    0.0000 C   0  0  0
   -6.7390   -3.6459    0.0000 C   0  0  0
   -4.2692   -4.4456    0.0000 C   0  0  0
   -9.1147   -3.1402    0.0000 C   0  0  0
   -7.5035   -4.9396    0.0000 C   0  0  0
   -5.3983   -5.4335    0.0000 F   0  0  0
   -3.2813   -5.5512    0.0000 F   0  0  0
   -3.1637   -3.4342    0.0000 F   0  0  0
  -10.4319   -2.3757    0.0000 O   0  0  0
   -8.9736   -4.6220    0.0000 N   0  0  0
  -10.1026   -5.6100    0.0000 C   0  0  0
   -9.7969   -7.0683    0.0000 C   0  0  0
  -11.5375   -5.1395    0.0000 C   0  0  0
  -10.9259   -8.0562    0.0000 C   0  0  0
  -12.6665   -6.1274    0.0000 C   0  0  0
  -12.3607   -7.5858    0.0000 C   0  0  0
  -10.6201   -9.5146    0.0000 C   0  0  1
  -12.1020   -9.8204    0.0000 F   0  0  0
  -10.3143  -10.9729    0.0000 C   0  0  0
   -9.1618   -9.1853    0.0000 C   0  0  0
   -8.8560  -10.6436    0.0000 F   0  0  0
  -11.7962  -11.2787    0.0000 F   0  0  0
  -10.0086  -12.4313    0.0000 C   0  0  0
  -11.0200  -13.5368    0.0000 N   0  0  0
   -8.6443  -13.0311    0.0000 N   0  0  0
  -10.2791  -14.8305    0.0000 N   0  0  0
   -8.8089  -14.5130    0.0000 C   0  0  0
   -7.3506  -12.2667    0.0000 C   0  0  0
  1  2  2
  1  3  2
  4  1  1  1  0
  1  5  1
  4  6  1
  4  7  1
  6  8  1
  7  9  1
  8 10  1
 10 11  1
 11 12  2
 11 13  1
 12 14  1
 13 15  2
 14 16  2
 14 17  1
 15 18  1
 16 19  1
 17 20  1
 17 21  1
 17 22  1
 18 23  2
 18 24  1
 24 25  1
 25 26  2
 25 27  1
 26 28  1
 27 29  2
 28 30  2
 31 28  1  6  0
 31 32  1
 31 33  1
 31 34  1
 33 35  1
 33 36  1
 33 37  1
 37 38  2
 37 39  1
 38 40  1
 39 41  1
 39 42  1
  8  9  1
 15 16  1
 19 24  1
 29 30  1
 40 41  2
M  END
> <COMPOUND_NAMES>
Example 458 (Stereo) (Page No: 603)

> <Reference>
WO2019148005

> <IC50_range_nM>
<100

> <smiles>
C[C@@](c1cccc(c1)N1Cc2c(cc(CN3CC[C@H](C3)S(C)(=O)=O)cc2C(F)(F)F)C1=O)(C(c1nncn1C)(F)F)F

$$$$
C27H27F6N5O3S
  MOLSOFT 03092310482D

 42 46  0  0  1  0  0  0  0  0999 V2000
    0.0000   -0.0000    0.0000 S   0  0  0
    1.3643   -0.5998    0.0000 O   0  0  0
    0.5998    1.3878    0.0000 O   0  0  0
   -1.3878    0.6233    0.0000 C   0  0  2
   -0.6233   -1.3643    0.0000 C   0  0  0
   -2.6933   -0.1176    0.0000 C   0  0  0
   -1.7171    2.1052    0.0000 C   0  0  0
   -3.8223    0.8938    0.0000 N   0  0  0
   -3.2225    2.2699    0.0000 C   0  0  0
   -5.3042    0.5880    0.0000 C   0  0  0
   -5.7746   -0.8233    0.0000 C   0  0  0
   -4.7867   -1.9288    0.0000 C   0  0  0
   -7.2565   -1.1290    0.0000 C   0  0  0
   -5.2571   -3.3401    0.0000 C   0  0  0
   -7.7269   -2.5404    0.0000 C   0  0  0
   -6.7390   -3.6459    0.0000 C   0  0  0
   -4.2692   -4.4456    0.0000 C   0  0  0
   -9.1147   -3.1402    0.0000 C   0  0  0
   -7.5035   -4.9396    0.0000 C   0  0  0
   -5.3983   -5.4335    0.0000 F   0  0  0
   -3.2813   -5.5512    0.0000 F   0  0  0
   -3.1637   -3.4342    0.0000 F   0  0  0
  -10.4319   -2.3757    0.0000 O   0  0  0
   -8.9736   -4.6220    0.0000 N   0  0  0
  -10.1026   -5.6100    0.0000 C   0  0  0
   -9.7969   -7.0683    0.0000 C   0  0  0
  -11.5375   -5.1395    0.0000 C   0  0  0
  -10.9259   -8.0562    0.0000 C   0  0  0
  -12.6665   -6.1274    0.0000 C   0  0  0
  -12.3607   -7.5858    0.0000 C   0  0  0
  -10.6201   -9.5146    0.0000 C   0  0  1
  -12.1020   -9.8204    0.0000 F   0  0  0
  -10.3143  -10.9729    0.0000 C   0  0  0
   -9.1618   -9.1853    0.0000 C   0  0  0
   -8.8560  -10.6436    0.0000 F   0  0  0
  -11.7962  -11.2787    0.0000 F   0  0  0
  -10.0086  -12.4313    0.0000 C   0  0  0
  -11.0200  -13.5368    0.0000 N   0  0  0
   -8.6443  -13.0311    0.0000 N   0  0  0
  -10.2791  -14.8305    0.0000 N   0  0  0
   -8.8089  -14.5130    0.0000 C   0  0  0
   -7.3506  -12.2667    0.0000 C   0  0  0
  1  2  2
  1  3  2
  4  1  1  6  0
  1  5  1
  4  6  1
  4  7  1
  6  8  1
  7  9  1
  8 10  1
 10 11  1
 11 12  2
 11 13  1
 12 14  1
 13 15  2
 14 16  2
 14 17  1
 15 18  1
 16 19  1
 17 20  1
 17 21  1
 17 22  1
 18 23  2
 18 24  1
 24 25  1
 25 26  2
 25 27  1
 26 28  1
 27 29  2
 28 30  2
 31 28  1  6  0
 31 32  1
 31 33  1
 31 34  1
 33 35  1
 33 36  1
 33 37  1
 37 38  2
 37 39  1
 38 40  1
 39 41  1
 39 42  1
  8  9  1
 15 16  1
 19 24  1
 29 30  1
 40 41  2
M  END
> <COMPOUND_NAMES>
Example 457 (Stereo) (Page No: 602)

> <Reference>
WO2019148005

> <IC50_range_nM>
<100

> <smiles>
C[C@@](c1cccc(c1)N1Cc2c(cc(CN3CC[C@@H](C3)S(C)(=O)=O)cc2C(F)(F)F)C1=O)(C(c1nncn1C)(F)F)F

$$$$
C24H23FN4O2
  MOLSOFT 03092310482D

 31 36  0  0  0  0  0  0  0  0999 V2000
    0.0000   -0.0000    0.0000 F   0  0  0
   -1.4795   -0.3053    0.0000 C   0  0  0
   -1.9491   -1.7143    0.0000 C   0  0  0
   -2.5010    0.8219    0.0000 C   0  0  0
   -3.4286   -2.0196    0.0000 C   0  0  0
   -0.9511   -2.8180    0.0000 C   0  0  0
   -3.9804    0.5166    0.0000 C   0  0  0
   -4.4501   -0.8924    0.0000 C   0  0  0
   -4.1918   -3.3112    0.0000 C   0  0  0
    0.4579   -3.2642    0.0000 C   0  0  0
   -0.6458   -4.2740    0.0000 C   0  0  0
   -5.8356   -1.4912    0.0000 C   0  0  0
   -5.6712   -2.9824    0.0000 N   0  0  0
   -7.1507   -0.7280    0.0000 O   0  0  0
   -6.7984   -3.9804    0.0000 C   0  0  0
   -6.4931   -5.4364    0.0000 C   0  0  0
   -8.2309   -3.5108    0.0000 C   0  0  0
   -7.6203   -6.4227    0.0000 C   0  0  0
   -9.3581   -4.5088    0.0000 C   0  0  0
   -9.0646   -5.9530    0.0000 C   0  0  0
   -7.3151   -7.8787    0.0000 C   0  0  0
   -6.0704   -8.6888    0.0000 C   0  0  0
   -8.1487   -9.1233    0.0000 C   0  0  0
   -8.7475   -7.4090    0.0000 C   0  0  0
   -6.9041   -9.9335    0.0000 O   0  0  0
   -9.8747   -8.4070    0.0000 C   0  0  0
  -11.3542   -8.0783    0.0000 N   0  0  0
   -9.7338   -9.8865    0.0000 N   0  0  0
  -12.1174   -9.3699    0.0000 N   0  0  0
  -11.1194  -10.4853    0.0000 C   0  0  0
   -8.4423  -10.6262    0.0000 C   0  0  0
  1  2  1
  2  3  2
  2  4  1
  3  5  1
  3  6  1
  4  7  2
  5  8  2
  5  9  1
  6 10  1
  6 11  1
  8 12  1
  9 13  1
 12 14  2
 13 15  1
 15 16  2
 15 17  1
 16 18  1
 17 19  2
 18 20  2
 18 21  1
 21 22  1
 21 23  1
 21 24  1
 22 25  1
 24 26  1
 26 27  2
 26 28  1
 27 29  1
 28 30  1
 28 31  1
  7  8  1
 10 11  1
 12 13  1
 19 20  1
 23 25  1
 29 30  2
M  END
> <COMPOUND_NAMES>
Example 577 (Page No: 702)

> <Reference>
WO2019148005

> <IC50_range_nM>
101-300

> <smiles>
Cn1cnnc1CC1(COC1)c1cccc(c1)N1Cc2c(ccc(c2C2CC2)F)C1=O

$$$$
C22H19F3N4O2
  MOLSOFT 03092310482D

 31 35  0  0  0  0  0  0  0  0999 V2000
    0.0000   -0.0000    0.0000 F   0  0  0
    1.1021    1.0083    0.0000 C   0  0  0
    2.0986   -0.0938    0.0000 F   0  0  0
    2.2041    2.0282    0.0000 F   0  0  0
    0.0821    2.1338    0.0000 C   0  0  0
   -1.3952    1.8289    0.0000 C   0  0  0
    0.5276    3.5641    0.0000 C   0  0  0
   -2.4151    2.9544    0.0000 C   0  0  0
   -2.1572    0.5393    0.0000 C   0  0  0
   -0.4924    4.6896    0.0000 C   0  0  0
   -3.7986    2.3565    0.0000 C   0  0  0
   -1.9696    4.3848    0.0000 C   0  0  0
   -3.6344    0.8676    0.0000 N   0  0  0
   -5.1117    3.1186    0.0000 O   0  0  0
   -4.7599   -0.1290    0.0000 C   0  0  0
   -4.4551   -1.5827    0.0000 C   0  0  0
   -6.1903    0.3400    0.0000 C   0  0  0
   -5.5806   -2.5676    0.0000 C   0  0  0
   -7.3158   -0.6565    0.0000 C   0  0  0
   -7.0227   -2.0986    0.0000 C   0  0  0
   -5.2758   -4.0213    0.0000 C   0  0  0
   -4.0331   -4.8303    0.0000 C   0  0  0
   -6.1082   -5.2641    0.0000 C   0  0  0
   -6.7061   -3.5524    0.0000 C   0  0  0
   -4.8655   -6.0730    0.0000 O   0  0  0
   -7.8316   -4.5489    0.0000 C   0  0  0
   -9.3088   -4.2206    0.0000 N   0  0  0
   -7.6909   -6.0261    0.0000 N   0  0  0
  -10.0709   -5.5103    0.0000 N   0  0  0
   -9.0744   -6.6241    0.0000 C   0  0  0
   -6.4013   -6.7647    0.0000 C   0  0  0
  1  2  1
  2  3  1
  2  4  1
  2  5  1
  5  6  2
  5  7  1
  6  8  1
  6  9  1
  7 10  2
  8 11  1
  8 12  2
  9 13  1
 11 14  2
 13 15  1
 15 16  2
 15 17  1
 16 18  1
 17 19  2
 18 20  2
 18 21  1
 21 22  1
 21 23  1
 21 24  1
 22 25  1
 24 26  1
 26 27  2
 26 28  1
 27 29  1
 28 30  1
 28 31  1
 10 12  1
 11 13  1
 19 20  1
 23 25  1
 29 30  2
M  END
> <COMPOUND_NAMES>
Example 301 (Page No: 507)

> <Reference>
WO2019148005

> <IC50_range_nM>
<100

> <smiles>
Cn1cnnc1CC1(COC1)c1cccc(c1)N1Cc2c(cccc2C(F)(F)F)C1=O

$$$$
C23H21F3N4O3
  MOLSOFT 03092310482D

 33 37  0  0  0  0  0  0  0  0999 V2000
    0.0000   -0.0000    0.0000 F   0  0  0
    1.1023    1.0085    0.0000 C   0  0  0
    2.0990   -0.0938    0.0000 F   0  0  0
    2.2046    2.0287    0.0000 F   0  0  0
    0.0821    2.1342    0.0000 C   0  0  0
   -1.3954    1.8293    0.0000 C   0  0  0
    0.5277    3.5648    0.0000 C   0  0  0
   -2.4156    2.9551    0.0000 C   0  0  0
   -2.1577    0.5394    0.0000 C   0  0  0
   -0.4925    4.6906    0.0000 C   0  0  0
   -3.7994    2.3570    0.0000 C   0  0  0
   -1.9700    4.3857    0.0000 C   0  0  0
   -3.6352    0.8678    0.0000 N   0  0  0
   -0.0469    6.1212    0.0000 C   0  0  0
   -5.1127    3.1192    0.0000 O   0  0  0
   -4.7609   -0.1290    0.0000 C   0  0  0
    1.4072    6.4495    0.0000 O   0  0  0
   -4.4560   -1.5831    0.0000 C   0  0  0
   -6.1916    0.3401    0.0000 C   0  0  0
   -5.5818   -2.5681    0.0000 C   0  0  0
   -7.3173   -0.6567    0.0000 C   0  0  0
   -7.0241   -2.0990    0.0000 C   0  0  0
   -5.2769   -4.0222    0.0000 C   0  0  0
   -4.0339   -4.8313    0.0000 C   0  0  0
   -6.1095   -5.2652    0.0000 C   0  0  0
   -6.7075   -3.5531    0.0000 C   0  0  0
   -4.8665   -6.0743    0.0000 O   0  0  0
   -7.8332   -4.5499    0.0000 C   0  0  0
   -9.3108   -4.2215    0.0000 N   0  0  0
   -7.6925   -6.0274    0.0000 N   0  0  0
  -10.0730   -5.5114    0.0000 N   0  0  0
   -9.0763   -6.6254    0.0000 C   0  0  0
   -6.4026   -6.7661    0.0000 C   0  0  0
  1  2  1
  2  3  1
  2  4  1
  2  5  1
  5  6  2
  5  7  1
  6  8  1
  6  9  1
  7 10  2
  8 11  1
  8 12  2
  9 13  1
 10 14  1
 11 15  2
 13 16  1
 14 17  1
 16 18  2
 16 19  1
 18 20  1
 19 21  2
 20 22  2
 20 23  1
 23 24  1
 23 25  1
 23 26  1
 24 27  1
 26 28  1
 28 29  2
 28 30  1
 29 31  1
 30 32  1
 30 33  1
 10 12  1
 11 13  1
 21 22  1
 25 27  1
 31 32  2
M  END
> <COMPOUND_NAMES>
Example 437 (Page No: 591)

> <Reference>
WO2019148005

> <IC50_range_nM>
<100

> <smiles>
Cn1cnnc1CC1(COC1)c1cccc(c1)N1Cc2c(cc(CO)cc2C(F)(F)F)C1=O

$$$$
C24H23F3N4O3
  MOLSOFT 03092310482D

 34 38  0  0  0  0  0  0  0  0999 V2000
    0.0000   -0.0000    0.0000 F   0  0  0
   -0.0118   -1.4872    0.0000 C   0  0  0
    1.4754   -1.4754    0.0000 F   0  0  0
   -1.5226   -1.4754    0.0000 F   0  0  0
   -0.0236   -2.9743    0.0000 C   0  0  0
   -1.3337   -3.7061    0.0000 C   0  0  0
    1.2629   -3.7061    0.0000 C   0  0  0
   -1.3455   -5.1933    0.0000 C   0  0  0
   -2.7737   -3.2340    0.0000 C   0  0  0
    1.2511   -5.1933    0.0000 C   0  0  0
   -2.7855   -5.6418    0.0000 C   0  0  0
   -0.0590   -5.9251    0.0000 C   0  0  0
   -3.6707   -4.4379    0.0000 N   0  0  0
    2.5376   -5.9251    0.0000 C   0  0  3
   -3.2576   -7.0581    0.0000 O   0  0  0
   -5.1815   -4.4261    0.0000 C   0  0  0
    3.8241   -5.1697    0.0000 C   0  0  0
   -5.9369   -5.7126    0.0000 C   0  0  0
   -5.9369   -3.1160    0.0000 C   0  0  0
   -7.4476   -5.7008    0.0000 C   0  0  0
   -7.4476   -3.1042    0.0000 C   0  0  0
   -8.2030   -4.3907    0.0000 C   0  0  0
   -8.2030   -6.9873    0.0000 C   0  0  0
   -7.8253   -8.4273    0.0000 C   0  0  0
   -9.6666   -7.3650    0.0000 C   0  0  0
   -8.9584   -5.6772    0.0000 C   0  0  0
   -9.2889   -8.8050    0.0000 O   0  0  0
  -10.4692   -5.6654    0.0000 C   0  0  0
  -11.3662   -6.8693    0.0000 N   0  0  0
  -11.3662   -4.4379    0.0000 N   0  0  0
  -12.8061   -6.3972    0.0000 N   0  0  0
  -12.8061   -4.8864    0.0000 C   0  0  0
  -10.9177   -2.9979    0.0000 C   0  0  0
    2.5376   -7.3251    0.0000 O   0  0  0
  1  2  1
  2  3  1
  2  4  1
  2  5  1
  5  6  2
  5  7  1
  6  8  1
  6  9  1
  7 10  2
  8 11  1
  8 12  2
  9 13  1
 14 10  1
 11 15  2
 13 16  1
 14 17  1
 16 18  2
 16 19  1
 18 20  1
 19 21  2
 20 22  2
 20 23  1
 23 24  1
 23 25  1
 23 26  1
 24 27  1
 26 28  1
 28 29  2
 28 30  1
 29 31  1
 30 32  1
 30 33  1
 10 12  1
 11 13  1
 21 22  1
 25 27  1
 31 32  2
 14 34  1
M  END
> <COMPOUND_NAMES>
Example 540 (+/-) (Page No: 675)

> <Reference>
WO2019148005

> <IC50_range_nM>
<100

> <smiles>
CC(c1cc2C(N(Cc2c(c1)C(F)(F)F)c1cccc(c1)C1(Cc2nncn2C)COC1)=O)O

$$$$
C29H25F3N4O3
  MOLSOFT 03092310482D

 39 44  0  0  0  0  0  0  0  0999 V2000
    0.0000   -0.0000    0.0000 F   0  0  0
    1.1029    1.0091    0.0000 C   0  0  0
    2.1002   -0.0939    0.0000 F   0  0  0
    2.2058    2.0298    0.0000 F   0  0  0
    0.0821    2.1354    0.0000 C   0  0  0
   -1.3963    1.8304    0.0000 C   0  0  0
    0.5280    3.5669    0.0000 C   0  0  0
   -2.4170    2.9568    0.0000 C   0  0  0
   -2.1589    0.5397    0.0000 C   0  0  0
   -0.4928    4.6933    0.0000 C   0  0  0
   -3.8016    2.3584    0.0000 C   0  0  0
   -1.9712    4.3882    0.0000 C   0  0  0
   -3.6373    0.8683    0.0000 N   0  0  0
   -0.0469    6.1247    0.0000 C   0  0  3
   -5.1157    3.1210    0.0000 O   0  0  0
   -4.7637   -0.1291    0.0000 C   0  0  0
   -1.0560    7.2511    0.0000 O   0  0  0
    1.4080    6.4533    0.0000 C   0  0  0
   -4.4586   -1.5840    0.0000 C   0  0  0
   -6.1951    0.3403    0.0000 C   0  0  0
    1.8538    7.8847    0.0000 C   0  0  0
    2.4053    5.3503    0.0000 C   0  0  0
   -5.5850   -2.5696    0.0000 C   0  0  0
   -7.3215   -0.6571    0.0000 C   0  0  0
    3.3088    8.2132    0.0000 C   0  0  0
    3.8602    5.6789    0.0000 C   0  0  0
   -7.0282   -2.1002    0.0000 C   0  0  0
   -5.2799   -4.0245    0.0000 C   0  0  0
    4.3061    7.1103    0.0000 C   0  0  0
   -4.0362   -4.8341    0.0000 C   0  0  0
   -6.1130   -5.2682    0.0000 C   0  0  0
   -6.7114   -3.5552    0.0000 C   0  0  0
   -4.8693   -6.0778    0.0000 O   0  0  0
   -7.8378   -4.5525    0.0000 C   0  0  0
   -9.3162   -4.2240    0.0000 N   0  0  0
   -7.6970   -6.0309    0.0000 N   0  0  0
  -10.0788   -5.5146    0.0000 N   0  0  0
   -9.0815   -6.6293    0.0000 C   0  0  0
   -6.4063   -6.7701    0.0000 C   0  0  0
  1  2  1
  2  3  1
  2  4  1
  2  5  1
  5  6  2
  5  7  1
  6  8  1
  6  9  1
  7 10  2
  8 11  1
  8 12  2
  9 13  1
 14 10  1
 11 15  2
 13 16  1
 14 17  1
 14 18  1
 16 19  2
 16 20  1
 18 21  2
 18 22  1
 19 23  1
 20 24  2
 21 25  1
 22 26  2
 23 27  2
 23 28  1
 25 29  2
 28 30  1
 28 31  1
 28 32  1
 30 33  1
 32 34  1
 34 35  2
 34 36  1
 35 37  1
 36 38  1
 36 39  1
 10 12  1
 11 13  1
 24 27  1
 26 29  1
 31 33  1
 37 38  2
M  END
> <COMPOUND_NAMES>
Example 697 (+/-) (Page No: 774)

> <Reference>
WO2019148005

> <IC50_range_nM>
<100

> <smiles>
Cn1cnnc1CC1(COC1)c1cccc(c1)N1Cc2c(cc(cc2C(F)(F)F)C(c2ccccc2)O)C1=O

$$$$
C24H20F6N4O3
  MOLSOFT 03092310482D

 37 41  0  0  0  0  0  0  0  0999 V2000
    0.0000   -0.0000    0.0000 F   0  0  0
    1.1023    1.0085    0.0000 C   0  0  0
    2.0990   -0.0938    0.0000 F   0  0  0
    2.2045    2.0286    0.0000 F   0  0  0
    0.0821    2.1342    0.0000 C   0  0  0
   -1.3954    1.8293    0.0000 C   0  0  0
    0.5277    3.5648    0.0000 C   0  0  0
   -2.4156    2.9550    0.0000 C   0  0  0
   -2.1576    0.5394    0.0000 C   0  0  0
   -0.4925    4.6905    0.0000 C   0  0  0
   -3.7993    2.3570    0.0000 C   0  0  0
   -1.9700    4.3856    0.0000 C   0  0  0
   -3.6351    0.8677    0.0000 N   0  0  0
   -0.0469    6.1211    0.0000 C   0  0  3
   -5.1126    3.1192    0.0000 O   0  0  0
   -4.7608   -0.1290    0.0000 C   0  0  0
   -1.0554    7.2468    0.0000 O   0  0  0
    1.4071    6.4494    0.0000 C   0  0  0
   -4.4559   -1.5830    0.0000 C   0  0  0
   -6.1914    0.3401    0.0000 C   0  0  0
    1.7120    4.9953    0.0000 F   0  0  0
    2.8612    6.7777    0.0000 F   0  0  0
    1.0788    7.9269    0.0000 F   0  0  0
   -5.5817   -2.5680    0.0000 C   0  0  0
   -7.3171   -0.6567    0.0000 C   0  0  0
   -7.0240   -2.0990    0.0000 C   0  0  0
   -5.2768   -4.0221    0.0000 C   0  0  0
   -4.0338   -4.8312    0.0000 C   0  0  0
   -6.1093   -5.2650    0.0000 C   0  0  0
   -6.7074   -3.5530    0.0000 C   0  0  0
   -4.8664   -6.0742    0.0000 O   0  0  0
   -7.8331   -4.5498    0.0000 C   0  0  0
   -9.3106   -4.2214    0.0000 N   0  0  0
   -7.6924   -6.0272    0.0000 N   0  0  0
  -10.0728   -5.5113    0.0000 N   0  0  0
   -9.0761   -6.6253    0.0000 C   0  0  0
   -6.4025   -6.7660    0.0000 C   0  0  0
  1  2  1
  2  3  1
  2  4  1
  2  5  1
  5  6  2
  5  7  1
  6  8  1
  6  9  1
  7 10  2
  8 11  1
  8 12  2
  9 13  1
 14 10  1
 11 15  2
 13 16  1
 14 17  1
 14 18  1
 16 19  2
 16 20  1
 18 21  1
 18 22  1
 18 23  1
 19 24  1
 20 25  2
 24 26  2
 24 27  1
 27 28  1
 27 29  1
 27 30  1
 28 31  1
 30 32  1
 32 33  2
 32 34  1
 33 35  1
 34 36  1
 34 37  1
 10 12  1
 11 13  1
 25 26  1
 29 31  1
 35 36  2
M  END
> <COMPOUND_NAMES>
Example 580 (+/-) (Page No: 705)

> <Reference>
WO2019148005

> <IC50_range_nM>
<100

> <smiles>
Cn1cnnc1CC1(COC1)c1cccc(c1)N1Cc2c(cc(cc2C(F)(F)F)C(C(F)(F)F)O)C1=O

$$$$
C26H25F3N4O2
  MOLSOFT 03092310482D

 35 40  0  0  0  0  0  0  0  0999 V2000
    0.0000   -0.0000    0.0000 F   0  0  0
    1.1017    1.0080    0.0000 C   0  0  0
    2.0980   -0.0938    0.0000 F   0  0  0
    2.2035    2.0276    0.0000 F   0  0  0
    0.0820    2.1331    0.0000 C   0  0  0
   -1.3947    1.8284    0.0000 C   0  0  0
    0.5274    3.5630    0.0000 C   0  0  0
   -2.4144    2.9536    0.0000 C   0  0  0
   -2.1566    0.5391    0.0000 C   0  0  0
   -0.4923    4.6882    0.0000 C   0  0  0
   -3.7974    2.3558    0.0000 C   0  0  0
   -1.9690    4.3835    0.0000 C   0  0  0
   -3.6334    0.8673    0.0000 N   0  0  0
   -0.0469    6.1181    0.0000 C   0  0  0
   -5.1101    3.1177    0.0000 O   0  0  0
   -4.7585   -0.1289    0.0000 C   0  0  0
   -0.7384    7.4660    0.0000 C   0  0  0
    1.2775    6.8096    0.0000 C   0  0  0
   -4.4538   -1.5823    0.0000 C   0  0  0
   -6.1884    0.3399    0.0000 C   0  0  0
    0.5860    8.1575    0.0000 C   0  0  0
   -5.5790   -2.5668    0.0000 C   0  0  0
   -7.3136   -0.6563    0.0000 C   0  0  0
   -7.0206   -2.0980    0.0000 C   0  0  0
   -5.2742   -4.0201    0.0000 C   0  0  0
   -4.0319   -4.8288    0.0000 C   0  0  0
   -6.1064   -5.2625    0.0000 C   0  0  0
   -6.7041   -3.5513    0.0000 C   0  0  0
   -4.8640   -6.0712    0.0000 O   0  0  0
   -7.8293   -4.5476    0.0000 C   0  0  0
   -9.3061   -4.2194    0.0000 N   0  0  0
   -7.6887   -6.0243    0.0000 N   0  0  0
  -10.0679   -5.5086    0.0000 N   0  0  0
   -9.0717   -6.6221    0.0000 C   0  0  0
   -6.3994   -6.7627    0.0000 C   0  0  0
  1  2  1
  2  3  1
  2  4  1
  2  5  1
  5  6  2
  5  7  1
  6  8  1
  6  9  1
  7 10  2
  8 11  1
  8 12  2
  9 13  1
 10 14  1
 11 15  2
 13 16  1
 14 17  1
 14 18  1
 16 19  2
 16 20  1
 17 21  1
 19 22  1
 20 23  2
 22 24  2
 22 25  1
 25 26  1
 25 27  1
 25 28  1
 26 29  1
 28 30  1
 30 31  2
 30 32  1
 31 33  1
 32 34  1
 32 35  1
 10 12  1
 11 13  1
 18 21  1
 23 24  1
 27 29  1
 33 34  2
M  END
> <COMPOUND_NAMES>
Example 611 (Page No: 721)

> <Reference>
WO2019148005

> <IC50_range_nM>
<100

> <smiles>
Cn1cnnc1CC1(COC1)c1cccc(c1)N1Cc2c(cc(cc2C(F)(F)F)C2CCC2)C1=O

$$$$
C26H25F3N4O3
  MOLSOFT 03092310482D

 36 41  0  0  0  0  0  0  0  0999 V2000
    0.0000   -0.0000    0.0000 F   0  0  0
    1.0976    1.0150    0.0000 C   0  0  0
    2.0890   -0.0826    0.0000 F   0  0  0
    2.1952    2.0300    0.0000 F   0  0  0
    0.0826    2.1362    0.0000 C   0  0  0
   -1.3927    1.8412    0.0000 C   0  0  0
    0.5311    3.5761    0.0000 C   0  0  0
   -2.4077    2.9624    0.0000 C   0  0  0
   -2.1598    0.5547    0.0000 C   0  0  0
   -0.4839    4.6973    0.0000 C   0  0  0
   -3.7886    2.3605    0.0000 C   0  0  0
   -1.9592    4.4023    0.0000 C   0  0  0
   -3.6351    0.8734    0.0000 N   0  0  0
   -0.0354    6.1372    0.0000 C   0  0  3
   -5.0986    3.1158    0.0000 O   0  0  0
   -4.7563   -0.1180    0.0000 C   0  0  0
    1.3809    6.6093    0.0000 C   0  0  0
   -0.9324    7.3647    0.0000 C   0  0  0
   -4.4613   -1.5697    0.0000 C   0  0  0
   -6.1962    0.3541    0.0000 C   0  0  0
    1.3691    8.1200    0.0000 O   0  0  0
   -0.0590    8.5921    0.0000 C   0  0  0
   -5.5825   -2.5611    0.0000 C   0  0  0
   -7.3175   -0.6373    0.0000 C   0  0  0
   -7.0224   -2.0890    0.0000 C   0  0  0
   -5.2874   -4.0128    0.0000 C   0  0  0
   -4.0364   -4.8154    0.0000 C   0  0  0
   -6.1136   -5.2638    0.0000 C   0  0  0
   -6.7273   -3.5407    0.0000 C   0  0  0
   -4.8626   -6.0664    0.0000 O   0  0  0
   -7.8486   -4.5321    0.0000 C   0  0  0
   -9.3238   -4.2134    0.0000 N   0  0  0
   -7.7069   -6.0074    0.0000 N   0  0  0
  -10.0792   -5.4999    0.0000 N   0  0  0
   -9.0878   -6.6093    0.0000 C   0  0  0
   -6.4205   -6.7391    0.0000 C   0  0  0
  1  2  1
  2  3  1
  2  4  1
  2  5  1
  5  6  2
  5  7  1
  6  8  1
  6  9  1
  7 10  2
  8 11  1
  8 12  2
  9 13  1
 14 10  1
 11 15  2
 13 16  1
 14 17  1
 14 18  1
 16 19  2
 16 20  1
 17 21  1
 18 22  1
 19 23  1
 20 24  2
 23 25  2
 23 26  1
 26 27  1
 26 28  1
 26 29  1
 27 30  1
 29 31  1
 31 32  2
 31 33  1
 32 34  1
 33 35  1
 33 36  1
 10 12  1
 11 13  1
 21 22  1
 24 25  1
 28 30  1
 34 35  2
M  END
> <COMPOUND_NAMES>
Example 613 (+/-) (Page No: 722)

> <Reference>
WO2019148005

> <IC50_range_nM>
<100

> <smiles>
Cn1cnnc1CC1(COC1)c1cccc(c1)N1Cc2c(cc(cc2C(F)(F)F)C2CCOC2)C1=O

$$$$
C27H27F3N4O3
  MOLSOFT 03092310482D

 37 42  0  0  0  0  0  0  0  0999 V2000
    0.0000   -0.0000    0.0000 F   0  0  0
    1.1022    1.0084    0.0000 C   0  0  0
    2.0988   -0.0938    0.0000 F   0  0  0
    2.2043    2.0285    0.0000 F   0  0  0
    0.0821    2.1340    0.0000 C   0  0  0
   -1.3953    1.8291    0.0000 C   0  0  0
    0.5276    3.5645    0.0000 C   0  0  0
   -2.4154    2.9547    0.0000 C   0  0  0
   -2.1574    0.5394    0.0000 C   0  0  0
   -0.4925    4.6901    0.0000 C   0  0  0
   -3.7990    2.3568    0.0000 C   0  0  0
   -1.9698    4.3852    0.0000 C   0  0  0
   -3.6348    0.8677    0.0000 N   0  0  0
   -0.0469    6.1205    0.0000 C   0  0  3
   -5.1122    3.1189    0.0000 O   0  0  0
   -4.7604   -0.1290    0.0000 C   0  0  0
    1.4070    6.4488    0.0000 C   0  0  0
   -1.0553    7.2462    0.0000 C   0  0  0
   -4.4556   -1.5829    0.0000 C   0  0  0
   -6.1909    0.3400    0.0000 C   0  0  0
    1.8526    7.8793    0.0000 O   0  0  0
   -0.6097    8.6766    0.0000 C   0  0  0
   -5.5812   -2.5678    0.0000 C   0  0  0
   -7.3165   -0.6566    0.0000 C   0  0  0
    0.8325    9.0049    0.0000 C   0  0  0
   -7.0234   -2.0988    0.0000 C   0  0  0
   -5.2763   -4.0217    0.0000 C   0  0  0
   -4.0335   -4.8308    0.0000 C   0  0  0
   -6.1088   -5.2646    0.0000 C   0  0  0
   -6.7068   -3.5527    0.0000 C   0  0  0
   -4.8659   -6.0736    0.0000 O   0  0  0
   -7.8324   -4.5494    0.0000 C   0  0  0
   -9.3098   -4.2211    0.0000 N   0  0  0
   -7.6917   -6.0267    0.0000 N   0  0  0
  -10.0719   -5.5108    0.0000 N   0  0  0
   -9.0753   -6.6247    0.0000 C   0  0  0
   -6.4019   -6.7654    0.0000 C   0  0  0
  1  2  1
  2  3  1
  2  4  1
  2  5  1
  5  6  2
  5  7  1
  6  8  1
  6  9  1
  7 10  2
  8 11  1
  8 12  2
  9 13  1
 14 10  1
 11 15  2
 13 16  1
 14 17  1
 14 18  1
 16 19  2
 16 20  1
 17 21  1
 18 22  1
 19 23  1
 20 24  2
 21 25  1
 23 26  2
 23 27  1
 27 28  1
 27 29  1
 27 30  1
 28 31  1
 30 32  1
 32 33  2
 32 34  1
 33 35  1
 34 36  1
 34 37  1
 10 12  1
 11 13  1
 22 25  1
 24 26  1
 29 31  1
 35 36  2
M  END
> <COMPOUND_NAMES>
Example 615 (+/-) (Page No: 723)

> <Reference>
WO2019148005

> <IC50_range_nM>
<100

> <smiles>
Cn1cnnc1CC1(COC1)c1cccc(c1)N1Cc2c(cc(cc2C(F)(F)F)C2CCCOC2)C1=O

$$$$
C27H27F3N4O3
  MOLSOFT 03092310482D

 37 42  0  0  0  0  0  0  0  0999 V2000
    0.0000   -0.0000    0.0000 F   0  0  0
    1.1041    1.0102    0.0000 C   0  0  0
    2.0908   -0.0940    0.0000 F   0  0  0
    2.2083    2.0203    0.0000 F   0  0  0
    0.0940    2.1378    0.0000 C   0  0  0
   -1.3860    1.8324    0.0000 C   0  0  0
    0.5403    3.5708    0.0000 C   0  0  0
   -2.3962    2.9600    0.0000 C   0  0  0
   -2.1495    0.5403    0.0000 C   0  0  0
   -0.4698    4.6985    0.0000 C   0  0  0
   -3.7823    2.3610    0.0000 C   0  0  0
   -1.9499    4.3931    0.0000 C   0  0  0
   -3.6296    0.8692    0.0000 N   0  0  0
   -0.0235    6.1315    0.0000 C   0  0  0
   -5.0978    3.1245    0.0000 O   0  0  0
   -4.7572   -0.1175    0.0000 C   0  0  0
    1.4330    6.4604    0.0000 C   0  0  3
   -4.4518   -1.5740    0.0000 C   0  0  0
   -6.1902    0.3524    0.0000 C   0  0  0
    2.5372    5.4737    0.0000 O   0  0  0
    2.0321    7.8464    0.0000 C   0  0  0
   -5.5794   -2.5607    0.0000 C   0  0  0
   -7.3179   -0.6343    0.0000 C   0  0  0
    3.8175    6.2372    0.0000 C   0  0  0
    3.5121    7.7055    0.0000 C   0  0  0
   -7.0125   -2.0908    0.0000 C   0  0  0
   -5.2740   -4.0172    0.0000 C   0  0  0
   -4.0289   -4.8277    0.0000 C   0  0  0
   -6.1080   -5.2623    0.0000 C   0  0  0
   -6.7071   -3.5473    0.0000 C   0  0  0
   -4.8629   -6.0728    0.0000 O   0  0  0
   -7.8347   -4.5340    0.0000 C   0  0  0
   -9.3147   -4.2051    0.0000 N   0  0  0
   -7.6937   -6.0140    0.0000 N   0  0  0
  -10.0782   -5.4972    0.0000 N   0  0  0
   -9.0798   -6.6131    0.0000 C   0  0  0
   -6.4017   -6.7540    0.0000 C   0  0  0
  1  2  1
  2  3  1
  2  4  1
  2  5  1
  5  6  2
  5  7  1
  6  8  1
  6  9  1
  7 10  2
  8 11  1
  8 12  2
  9 13  1
 10 14  1
 11 15  2
 13 16  1
 17 14  1
 16 18  2
 16 19  1
 17 20  1
 17 21  1
 18 22  1
 19 23  2
 20 24  1
 21 25  1
 22 26  2
 22 27  1
 27 28  1
 27 29  1
 27 30  1
 28 31  1
 30 32  1
 32 33  2
 32 34  1
 33 35  1
 34 36  1
 34 37  1
 10 12  1
 11 13  1
 23 26  1
 24 25  1
 29 31  1
 35 36  2
M  END
> <COMPOUND_NAMES>
Example 529 (+/-) (Page No: 668)

> <Reference>
WO2019148005

> <IC50_range_nM>
<100

> <smiles>
Cn1cnnc1CC1(COC1)c1cccc(c1)N1Cc2c(cc(CC3CCCO3)cc2C(F)(F)F)C1=O

$$$$
C24H21F5N4O3
  MOLSOFT 03092310482D

 36 40  0  0  0  0  0  0  0  0999 V2000
    0.0000   -0.0000    0.0000 F   0  0  0
    1.1019    1.0081    0.0000 C   0  0  0
    2.0983   -0.0938    0.0000 F   0  0  0
    2.2038    2.0280    0.0000 F   0  0  0
    0.0821    2.1335    0.0000 C   0  0  0
   -1.3950    1.8287    0.0000 C   0  0  0
    0.5275    3.5637    0.0000 C   0  0  0
   -2.4148    2.9541    0.0000 C   0  0  0
   -2.1570    0.5392    0.0000 C   0  0  0
   -0.4923    4.6890    0.0000 C   0  0  0
   -3.7981    2.3562    0.0000 C   0  0  0
   -1.9694    4.3842    0.0000 C   0  0  0
   -3.6340    0.8675    0.0000 N   0  0  0
   -0.0469    6.1192    0.0000 C   0  0  0
   -5.1110    3.1182    0.0000 O   0  0  0
   -4.7594   -0.1289    0.0000 C   0  0  0
    1.3715    5.6737    0.0000 F   0  0  0
   -1.4770    6.5881    0.0000 F   0  0  0
    0.3986    7.5493    0.0000 C   0  0  0
   -4.4546   -1.5825    0.0000 C   0  0  0
   -6.1895    0.3400    0.0000 C   0  0  0
   -0.6213    8.6747    0.0000 O   0  0  0
   -5.5799   -2.5672    0.0000 C   0  0  0
   -7.3149   -0.6565    0.0000 C   0  0  0
   -7.0218   -2.0983    0.0000 C   0  0  0
   -5.2752   -4.0208    0.0000 C   0  0  0
   -4.0326   -4.8297    0.0000 C   0  0  0
   -6.1075   -5.2634    0.0000 C   0  0  0
   -6.7053   -3.5519    0.0000 C   0  0  0
   -4.8649   -6.0723    0.0000 O   0  0  0
   -7.8307   -4.5484    0.0000 C   0  0  0
   -9.3077   -4.2201    0.0000 N   0  0  0
   -7.6900   -6.0254    0.0000 N   0  0  0
  -10.0697   -5.5096    0.0000 N   0  0  0
   -9.0733   -6.6232    0.0000 C   0  0  0
   -6.4005   -6.7639    0.0000 C   0  0  0
  1  2  1
  2  3  1
  2  4  1
  2  5  1
  5  6  2
  5  7  1
  6  8  1
  6  9  1
  7 10  2
  8 11  1
  8 12  2
  9 13  1
 10 14  1
 11 15  2
 13 16  1
 14 17  1
 14 18  1
 14 19  1
 16 20  2
 16 21  1
 19 22  1
 20 23  1
 21 24  2
 23 25  2
 23 26  1
 26 27  1
 26 28  1
 26 29  1
 27 30  1
 29 31  1
 31 32  2
 31 33  1
 32 34  1
 33 35  1
 33 36  1
 10 12  1
 11 13  1
 24 25  1
 28 30  1
 34 35  2
M  END
> <COMPOUND_NAMES>
Example 547 (Page No: 682)

> <Reference>
WO2019148005

> <IC50_range_nM>
<100

> <smiles>
Cn1cnnc1CC1(COC1)c1cccc(c1)N1Cc2c(cc(cc2C(F)(F)F)C(CO)(F)F)C1=O

$$$$
C24H19F5N4O4
  MOLSOFT 03092310482D

 37 41  0  0  0  0  0  0  0  0999 V2000
    0.0000   -0.0000    0.0000 F   0  0  0
    1.1021    1.0083    0.0000 C   0  0  0
    2.0987   -0.0938    0.0000 F   0  0  0
    2.2042    2.0283    0.0000 F   0  0  0
    0.0821    2.1338    0.0000 C   0  0  0
   -1.3952    1.8290    0.0000 C   0  0  0
    0.5276    3.5642    0.0000 C   0  0  0
   -2.4152    2.9546    0.0000 C   0  0  0
   -2.1573    0.5393    0.0000 C   0  0  0
   -0.4924    4.6898    0.0000 C   0  0  0
   -3.7987    2.3566    0.0000 C   0  0  0
   -1.9697    4.3849    0.0000 C   0  0  0
   -3.6346    0.8676    0.0000 N   0  0  0
   -0.0469    6.1202    0.0000 C   0  0  0
   -5.1119    3.1187    0.0000 O   0  0  0
   -4.7601   -0.1290    0.0000 C   0  0  0
    1.3718    5.6746    0.0000 F   0  0  0
   -1.4773    6.5891    0.0000 F   0  0  0
    0.3986    7.5505    0.0000 C   0  0  0
   -4.4553   -1.5828    0.0000 C   0  0  0
   -6.1905    0.3400    0.0000 C   0  0  0
    1.8525    7.8788    0.0000 O   0  0  0
   -0.6214    8.6761    0.0000 O   0  0  0
   -5.5808   -2.5677    0.0000 C   0  0  0
   -7.3160   -0.6566    0.0000 C   0  0  0
   -7.0229   -2.0987    0.0000 C   0  0  0
   -5.2760   -4.0215    0.0000 C   0  0  0
   -4.0332   -4.8305    0.0000 C   0  0  0
   -6.1084   -5.2643    0.0000 C   0  0  0
   -6.7064   -3.5525    0.0000 C   0  0  0
   -4.8656   -6.0733    0.0000 O   0  0  0
   -7.8319   -4.5491    0.0000 C   0  0  0
   -9.3092   -4.2208    0.0000 N   0  0  0
   -7.6912   -6.0264    0.0000 N   0  0  0
  -10.0713   -5.5105    0.0000 N   0  0  0
   -9.0747   -6.6243    0.0000 C   0  0  0
   -6.4015   -6.7650    0.0000 C   0  0  0
  1  2  1
  2  3  1
  2  4  1
  2  5  1
  5  6  2
  5  7  1
  6  8  1
  6  9  1
  7 10  2
  8 11  1
  8 12  2
  9 13  1
 10 14  1
 11 15  2
 13 16  1
 14 17  1
 14 18  1
 14 19  1
 16 20  2
 16 21  1
 19 22  2
 19 23  1
 20 24  1
 21 25  2
 24 26  2
 24 27  1
 27 28  1
 27 29  1
 27 30  1
 28 31  1
 30 32  1
 32 33  2
 32 34  1
 33 35  1
 34 36  1
 34 37  1
 10 12  1
 11 13  1
 25 26  1
 29 31  1
 35 36  2
M  END
> <COMPOUND_NAMES>
Example 544 (Page No: 679)

> <Reference>
WO2019148005

> <IC50_range_nM>
301-1000

> <smiles>
Cn1cnnc1CC1(COC1)c1cccc(c1)N1Cc2c(cc(cc2C(F)(F)F)C(C(O)=O)(F)F)C1=O

$$$$
C26H23F3N4O3
  MOLSOFT 03092310482D

 36 41  0  0  0  0  0  0  0  0999 V2000
    0.0000   -0.0000    0.0000 F   0  0  0
    1.0976    1.0150    0.0000 C   0  0  0
    2.0890   -0.0826    0.0000 F   0  0  0
    2.1952    2.0300    0.0000 F   0  0  0
    0.0826    2.1362    0.0000 C   0  0  0
   -1.3927    1.8412    0.0000 C   0  0  0
    0.5311    3.5761    0.0000 C   0  0  0
   -2.4077    2.9624    0.0000 C   0  0  0
   -2.1598    0.5547    0.0000 C   0  0  0
   -0.4839    4.6973    0.0000 C   0  0  0
   -3.7886    2.3605    0.0000 C   0  0  0
   -1.9592    4.4023    0.0000 C   0  0  0
   -3.6351    0.8734    0.0000 N   0  0  0
   -0.0354    6.1372    0.0000 C   0  0  0
   -5.0986    3.1158    0.0000 O   0  0  0
   -4.7563   -0.1180    0.0000 C   0  0  0
   -0.9324    7.3647    0.0000 C   0  0  0
    1.3809    6.6093    0.0000 C   0  0  0
   -4.4613   -1.5697    0.0000 C   0  0  0
   -6.1962    0.3541    0.0000 C   0  0  0
   -0.0590    8.5921    0.0000 C   0  0  0
    1.3691    8.1200    0.0000 O   0  0  0
   -5.5825   -2.5611    0.0000 C   0  0  0
   -7.3175   -0.6373    0.0000 C   0  0  0
   -7.0224   -2.0890    0.0000 C   0  0  0
   -5.2874   -4.0128    0.0000 C   0  0  0
   -4.0364   -4.8154    0.0000 C   0  0  0
   -6.1136   -5.2638    0.0000 C   0  0  0
   -6.7273   -3.5407    0.0000 C   0  0  0
   -4.8626   -6.0664    0.0000 O   0  0  0
   -7.8486   -4.5321    0.0000 C   0  0  0
   -9.3238   -4.2134    0.0000 N   0  0  0
   -7.7069   -6.0074    0.0000 N   0  0  0
  -10.0792   -5.4999    0.0000 N   0  0  0
   -9.0878   -6.6093    0.0000 C   0  0  0
   -6.4205   -6.7391    0.0000 C   0  0  0
  1  2  1
  2  3  1
  2  4  1
  2  5  1
  5  6  2
  5  7  1
  6  8  1
  6  9  1
  7 10  2
  8 11  1
  8 12  2
  9 13  1
 10 14  1
 11 15  2
 13 16  1
 14 17  2
 14 18  1
 16 19  2
 16 20  1
 17 21  1
 18 22  1
 19 23  1
 20 24  2
 23 25  2
 23 26  1
 26 27  1
 26 28  1
 26 29  1
 27 30  1
 29 31  1
 31 32  2
 31 33  1
 32 34  1
 33 35  1
 33 36  1
 10 12  1
 11 13  1
 21 22  1
 24 25  1
 28 30  1
 34 35  2
M  END
> <COMPOUND_NAMES>
Example 612 (Page No: 722)

> <Reference>
WO2019148005

> <IC50_range_nM>
<100

> <smiles>
Cn1cnnc1CC1(COC1)c1cccc(c1)N1Cc2c(cc(cc2C(F)(F)F)C2COCC=2)C1=O

$$$$
C27H25F3N4O3
  MOLSOFT 03092310482D

 37 42  0  0  0  0  0  0  0  0999 V2000
    0.0000   -0.0000    0.0000 F   0  0  0
    1.1021    1.0083    0.0000 C   0  0  0
    2.0987   -0.0938    0.0000 F   0  0  0
    2.2042    2.0283    0.0000 F   0  0  0
    0.0821    2.1339    0.0000 C   0  0  0
   -1.3952    1.8290    0.0000 C   0  0  0
    0.5276    3.5642    0.0000 C   0  0  0
   -2.4152    2.9546    0.0000 C   0  0  0
   -2.1573    0.5393    0.0000 C   0  0  0
   -0.4924    4.6898    0.0000 C   0  0  0
   -3.7987    2.3566    0.0000 C   0  0  0
   -1.9697    4.3850    0.0000 C   0  0  0
   -3.6346    0.8676    0.0000 N   0  0  0
   -0.0469    6.1202    0.0000 C   0  0  0
   -5.1119    3.1187    0.0000 O   0  0  0
   -4.7601   -0.1290    0.0000 C   0  0  0
   -1.0552    7.2457    0.0000 C   0  0  0
    1.4069    6.4485    0.0000 C   0  0  0
   -4.4553   -1.5828    0.0000 C   0  0  0
   -6.1905    0.3400    0.0000 C   0  0  0
   -0.6097    8.6761    0.0000 C   0  0  0
    1.8525    7.8789    0.0000 O   0  0  0
   -5.5809   -2.5677    0.0000 C   0  0  0
   -7.3161   -0.6566    0.0000 C   0  0  0
    0.8442    9.0044    0.0000 C   0  0  0
   -7.0230   -2.0987    0.0000 C   0  0  0
   -5.2760   -4.0215    0.0000 C   0  0  0
   -4.0332   -4.8305    0.0000 C   0  0  0
   -6.1085   -5.2643    0.0000 C   0  0  0
   -6.7064   -3.5525    0.0000 C   0  0  0
   -4.8657   -6.0733    0.0000 O   0  0  0
   -7.8320   -4.5491    0.0000 C   0  0  0
   -9.3093   -4.2208    0.0000 N   0  0  0
   -7.6913   -6.0264    0.0000 N   0  0  0
  -10.0714   -5.5105    0.0000 N   0  0  0
   -9.0748   -6.6243    0.0000 C   0  0  0
   -6.4016   -6.7650    0.0000 C   0  0  0
  1  2  1
  2  3  1
  2  4  1
  2  5  1
  5  6  2
  5  7  1
  6  8  1
  6  9  1
  7 10  2
  8 11  1
  8 12  2
  9 13  1
 10 14  1
 11 15  2
 13 16  1
 14 17  2
 14 18  1
 16 19  2
 16 20  1
 17 21  1
 18 22  1
 19 23  1
 20 24  2
 21 25  1
 23 26  2
 23 27  1
 27 28  1
 27 29  1
 27 30  1
 28 31  1
 30 32  1
 32 33  2
 32 34  1
 33 35  1
 34 36  1
 34 37  1
 10 12  1
 11 13  1
 22 25  1
 24 26  1
 29 31  1
 35 36  2
M  END
> <COMPOUND_NAMES>
Example 614 (Page No: 723)

> <Reference>
WO2019148005

> <IC50_range_nM>
<100

> <smiles>
Cn1cnnc1CC1(COC1)c1cccc(c1)N1Cc2c(cc(cc2C(F)(F)F)C2COCCC=2)C1=O

$$$$
C27H25F3N4O3
  MOLSOFT 03092310482D

 37 42  0  0  0  0  0  0  0  0999 V2000
    0.0000   -0.0000    0.0000 F   0  0  0
    1.0974    1.0148    0.0000 C   0  0  0
    2.0887   -0.0826    0.0000 F   0  0  0
    2.1949    2.0297    0.0000 F   0  0  0
    0.0826    2.1359    0.0000 C   0  0  0
   -1.3924    1.8409    0.0000 C   0  0  0
    0.5310    3.5755    0.0000 C   0  0  0
   -2.4073    2.9619    0.0000 C   0  0  0
   -2.1595    0.5546    0.0000 C   0  0  0
   -0.4838    4.6965    0.0000 C   0  0  0
   -3.7879    2.3601    0.0000 C   0  0  0
   -1.9589    4.4015    0.0000 C   0  0  0
   -3.6345    0.8732    0.0000 N   0  0  0
   -0.0354    6.1362    0.0000 C   0  0  0
   -5.0977    3.1153    0.0000 O   0  0  0
   -4.7555   -0.1180    0.0000 C   0  0  0
   -0.9322    7.3634    0.0000 C   0  0  0
    1.3806    6.6082    0.0000 C   0  0  0
   -4.4605   -1.5694    0.0000 C   0  0  0
   -6.1952    0.3540    0.0000 C   0  0  0
   -0.0590    8.5906    0.0000 O   0  0  0
   -2.4427    7.3752    0.0000 C   0  0  0
    1.3688    8.1186    0.0000 C   0  0  0
   -5.5816   -2.5607    0.0000 C   0  0  0
   -7.3162   -0.6372    0.0000 C   0  0  0
   -7.0212   -2.0887    0.0000 C   0  0  0
   -5.2865   -4.0121    0.0000 C   0  0  0
   -4.0357   -4.8145    0.0000 C   0  0  0
   -6.1126   -5.2629    0.0000 C   0  0  0
   -6.7262   -3.5401    0.0000 C   0  0  0
   -4.8617   -6.0654    0.0000 O   0  0  0
   -7.8472   -4.5313    0.0000 C   0  0  0
   -9.3223   -4.2127    0.0000 N   0  0  0
   -7.7056   -6.0064    0.0000 N   0  0  0
  -10.0775   -5.4990    0.0000 N   0  0  0
   -9.0863   -6.6082    0.0000 C   0  0  0
   -6.4194   -6.7380    0.0000 C   0  0  0
  1  2  1
  2  3  1
  2  4  1
  2  5  1
  5  6  2
  5  7  1
  6  8  1
  6  9  1
  7 10  2
  8 11  1
  8 12  2
  9 13  1
 10 14  1
 11 15  2
 13 16  1
 14 17  2
 14 18  1
 16 19  2
 16 20  1
 17 21  1
 17 22  1
 18 23  1
 19 24  1
 20 25  2
 24 26  2
 24 27  1
 27 28  1
 27 29  1
 27 30  1
 28 31  1
 30 32  1
 32 33  2
 32 34  1
 33 35  1
 34 36  1
 34 37  1
 10 12  1
 11 13  1
 21 23  1
 25 26  1
 29 31  1
 35 36  2
M  END
> <COMPOUND_NAMES>
Example 616 (Page No: 724)

> <Reference>
WO2019148005

> <IC50_range_nM>
<100

> <smiles>
CC1=C(CCO1)c1cc2C(N(Cc2c(c1)C(F)(F)F)c1cccc(c1)C1(Cc2nncn2C)COC1)=O

$$$$
C28H28F3N5O2
  MOLSOFT 03092310482D

 38 43  0  0  1  0  0  0  0  0999 V2000
    0.0000   -0.0000    0.0000 F   0  0  0
   -0.0118   -1.4871    0.0000 C   0  0  0
    1.4753   -1.4753    0.0000 F   0  0  0
   -1.5226   -1.4753    0.0000 F   0  0  0
   -0.0236   -2.9743    0.0000 C   0  0  0
   -1.3337   -3.7061    0.0000 C   0  0  0
    1.2629   -3.7061    0.0000 C   0  0  0
   -1.3455   -5.1932    0.0000 C   0  0  0
   -2.7736   -3.2340    0.0000 C   0  0  0
    1.2511   -5.1932    0.0000 C   0  0  0
   -2.7854   -5.6417    0.0000 C   0  0  0
   -0.0590   -5.9250    0.0000 C   0  0  0
   -3.6707   -4.4378    0.0000 N   0  0  0
    2.5376   -5.9250    0.0000 C   0  0  0
   -3.2576   -7.0580    0.0000 O   0  0  0
   -5.1814   -4.4260    0.0000 C   0  0  0
    3.8241   -5.1696    0.0000 N   0  0  0
   -5.9368   -5.7125    0.0000 C   0  0  0
   -5.9368   -3.1159    0.0000 C   0  0  0
    3.9657   -3.6707    0.0000 C   0  0  2
    5.1814   -5.7715    0.0000 C   0  0  0
   -7.4475   -5.7007    0.0000 C   0  0  0
   -7.4475   -3.1041    0.0000 C   0  0  0
    5.4175   -3.3520    0.0000 C   0  0  0
    2.8445   -2.6556    0.0000 C   0  0  0
    6.1728   -4.6503    0.0000 C   0  0  0
   -8.2029   -4.3906    0.0000 C   0  0  0
   -8.2029   -6.9872    0.0000 C   0  0  0
   -7.8252   -8.4272    0.0000 C   0  0  0
   -9.6664   -7.3649    0.0000 C   0  0  0
   -8.9583   -5.6771    0.0000 C   0  0  0
   -9.2888   -8.8048    0.0000 O   0  0  0
  -10.4690   -5.6653    0.0000 C   0  0  0
  -11.3660   -6.8692    0.0000 N   0  0  0
  -11.3660   -4.4378    0.0000 N   0  0  0
  -12.8060   -6.3971    0.0000 N   0  0  0
  -12.8060   -4.8863    0.0000 C   0  0  0
  -10.9175   -2.9979    0.0000 C   0  0  0
  1  2  1
  2  3  1
  2  4  1
  2  5  1
  5  6  2
  5  7  1
  6  8  1
  6  9  1
  7 10  2
  8 11  1
  8 12  2
  9 13  1
 10 14  1
 11 15  2
 13 16  1
 14 17  1
 16 18  2
 16 19  1
 20 17  1
 17 21  1
 18 22  1
 19 23  2
 20 24  1
 20 25  1  1  0
 21 26  1
 22 27  2
 22 28  1
 28 29  1
 28 30  1
 28 31  1
 29 32  1
 31 33  1
 33 34  2
 33 35  1
 34 36  1
 35 37  1
 35 38  1
 10 12  1
 11 13  1
 23 27  1
 24 26  2
 30 32  1
 36 37  2
M  END
> <COMPOUND_NAMES>
Example 427 (S) (Page No: 586)

> <Reference>
WO2019148005

> <IC50_range_nM>
<100

> <smiles>
C[C@H]1C=CCN1Cc1cc2C(N(Cc2c(c1)C(F)(F)F)c1cccc(c1)C1(Cc2nncn2C)COC1)=O

$$$$
C31H28F3N5O2
  MOLSOFT 03092310482D

 41 47  0  0  0  0  0  0  0  0999 V2000
    0.0000   -0.0000    0.0000 F   0  0  0
    1.1047    1.0107    0.0000 C   0  0  0
    2.0919   -0.0940    0.0000 F   0  0  0
    2.2094    2.0213    0.0000 F   0  0  0
    0.0940    2.1389    0.0000 C   0  0  0
   -1.3867    1.8333    0.0000 C   0  0  0
    0.5406    3.5726    0.0000 C   0  0  0
   -2.3974    2.9615    0.0000 C   0  0  0
   -2.1506    0.5406    0.0000 C   0  0  0
   -0.4701    4.7008    0.0000 C   0  0  0
   -3.7842    2.3622    0.0000 C   0  0  0
   -1.9508    4.3953    0.0000 C   0  0  0
   -3.6314    0.8697    0.0000 N   0  0  0
   -0.0235    6.1346    0.0000 C   0  0  0
   -5.1004    3.1260    0.0000 O   0  0  0
   -4.7596   -0.1175    0.0000 C   0  0  0
    1.4337    6.4636    0.0000 N   0  0  0
   -4.4540   -1.5748    0.0000 C   0  0  0
   -6.1933    0.3526    0.0000 C   0  0  0
    2.5384    5.4764    0.0000 C   0  0  0
    2.0331    7.8504    0.0000 C   0  0  0
   -5.5822   -2.5619    0.0000 C   0  0  0
   -7.3215   -0.6346    0.0000 C   0  0  0
    3.8312    6.2403    0.0000 C   0  0  0
    3.5139    7.7093    0.0000 C   0  0  0
   -7.0160   -2.0919    0.0000 C   0  0  0
   -5.2767   -4.0192    0.0000 C   0  0  0
    5.2414    5.7937    0.0000 C   0  0  0
    4.6185    8.7200    0.0000 C   0  0  0
   -4.0309   -4.8301    0.0000 C   0  0  0
   -6.1111   -5.2649    0.0000 C   0  0  0
   -6.7104   -3.5491    0.0000 C   0  0  0
    6.3461    6.8044    0.0000 C   0  0  0
    6.0288    8.2734    0.0000 C   0  0  0
   -4.8653   -6.0758    0.0000 O   0  0  0
   -7.8386   -4.5363    0.0000 C   0  0  0
   -9.3194   -4.2072    0.0000 N   0  0  0
   -7.6976   -6.0170    0.0000 N   0  0  0
  -10.0832   -5.4999    0.0000 N   0  0  0
   -9.0843   -6.6164    0.0000 C   0  0  0
   -6.4049   -6.7574    0.0000 C   0  0  0
  1  2  1
  2  3  1
  2  4  1
  2  5  1
  5  6  2
  5  7  1
  6  8  1
  6  9  1
  7 10  2
  8 11  1
  8 12  2
  9 13  1
 10 14  1
 11 15  2
 13 16  1
 14 17  1
 16 18  2
 16 19  1
 17 20  1
 17 21  1
 18 22  1
 19 23  2
 20 24  1
 21 25  1
 22 26  2
 22 27  1
 24 28  1
 25 29  1
 27 30  1
 27 31  1
 27 32  1
 28 33  2
 29 34  2
 30 35  1
 32 36  1
 36 37  2
 36 38  1
 37 39  1
 38 40  1
 38 41  1
 10 12  1
 11 13  1
 23 26  1
 24 25  2
 31 35  1
 33 34  1
 39 40  2
M  END
> <COMPOUND_NAMES>
Example 654 (Page No: 744)

> <Reference>
WO2019148005

> <IC50_range_nM>
<100

> <smiles>
Cn1cnnc1CC1(COC1)c1cccc(c1)N1Cc2c(cc(CN3Cc4ccccc4C3)cc2C(F)(F)F)C1=O

$$$$
C31H27ClF3N5O2
  MOLSOFT 03092310482D

 42 48  0  0  0  0  0  0  0  0999 V2000
    0.0000   -0.0000    0.0000 Cl  0  0  0
   -1.1294   -0.9883    0.0000 C   0  0  0
   -2.5648   -0.5177    0.0000 C   0  0  0
   -0.8235   -2.4471    0.0000 C   0  0  0
   -3.6942   -1.5059    0.0000 C   0  0  0
   -1.9530   -3.4354    0.0000 C   0  0  0
   -3.3883   -2.9648    0.0000 C   0  0  0
   -5.2001   -1.3412    0.0000 C   0  0  0
   -4.7060   -3.7059    0.0000 C   0  0  0
   -5.8236   -2.7059    0.0000 N   0  0  0
   -7.3060   -3.0118    0.0000 C   0  0  0
   -7.7766   -4.4236    0.0000 C   0  0  0
   -6.7884   -5.5295    0.0000 C   0  0  0
   -9.2590   -4.7295    0.0000 C   0  0  0
   -7.2590   -6.9413    0.0000 C   0  0  0
   -9.7296   -6.1413    0.0000 C   0  0  0
   -8.7413   -7.2472    0.0000 C   0  0  0
   -6.2707   -8.0472    0.0000 C   0  0  0
  -11.1178   -6.7413    0.0000 C   0  0  0
   -9.5061   -8.5413    0.0000 C   0  0  0
   -7.4001   -9.0355    0.0000 F   0  0  0
   -5.2824   -9.1531    0.0000 F   0  0  0
   -5.1648   -7.0354    0.0000 F   0  0  0
  -12.4355   -5.9766    0.0000 O   0  0  0
  -10.9767   -8.2237    0.0000 N   0  0  0
  -12.1061   -9.2119    0.0000 C   0  0  0
  -11.8002  -10.6708    0.0000 C   0  0  0
  -13.5414   -8.7413    0.0000 C   0  0  0
  -12.9296  -11.6590    0.0000 C   0  0  0
  -14.6709   -9.7296    0.0000 C   0  0  0
  -14.3650  -11.1884    0.0000 C   0  0  0
  -12.6238  -13.1179    0.0000 C   0  0  0
  -11.3767  -13.9297    0.0000 C   0  0  0
  -13.4591  -14.3650    0.0000 C   0  0  0
  -14.0591  -12.6473    0.0000 C   0  0  0
  -12.2120  -15.1767    0.0000 O   0  0  0
  -15.1885  -13.6355    0.0000 C   0  0  0
  -16.6709  -13.3061    0.0000 N   0  0  0
  -15.0473  -15.1179    0.0000 N   0  0  0
  -17.4356  -14.6003    0.0000 N   0  0  0
  -16.4356  -15.7179    0.0000 C   0  0  0
  -13.7532  -15.8591    0.0000 C   0  0  0
  1  2  1
  2  3  2
  2  4  1
  3  5  1
  4  6  2
  5  7  2
  5  8  1
  7  9  1
  8 10  1
 10 11  1
 11 12  1
 12 13  2
 12 14  1
 13 15  1
 14 16  2
 15 17  2
 15 18  1
 16 19  1
 17 20  1
 18 21  1
 18 22  1
 18 23  1
 19 24  2
 19 25  1
 25 26  1
 26 27  2
 26 28  1
 27 29  1
 28 30  2
 29 31  2
 29 32  1
 32 33  1
 32 34  1
 32 35  1
 33 36  1
 35 37  1
 37 38  2
 37 39  1
 38 40  1
 39 41  1
 39 42  1
  6  7  1
  9 10  1
 16 17  1
 20 25  1
 30 31  1
 34 36  1
 40 41  2
M  END
> <COMPOUND_NAMES>
Example 659 (Page No: 746)

> <Reference>
WO2019148005

> <IC50_range_nM>
<100

> <smiles>
Cn1cnnc1CC1(COC1)c1cccc(c1)N1Cc2c(cc(CN3Cc4ccc(cc4C3)[Cl])cc2C(F)(F)F)C1=O

$$$$
C31H27F4N5O2
  MOLSOFT 03092310482D

 42 48  0  0  0  0  0  0  0  0999 V2000
    0.0000   -0.0000    0.0000 F   0  0  0
   -1.1294   -0.9883    0.0000 C   0  0  0
   -2.5648   -0.5177    0.0000 C   0  0  0
   -0.8235   -2.4471    0.0000 C   0  0  0
   -3.6942   -1.5059    0.0000 C   0  0  0
   -1.9530   -3.4354    0.0000 C   0  0  0
   -3.3883   -2.9648    0.0000 C   0  0  0
   -5.2001   -1.3412    0.0000 C   0  0  0
   -4.7060   -3.7059    0.0000 C   0  0  0
   -5.8236   -2.7059    0.0000 N   0  0  0
   -7.3060   -3.0118    0.0000 C   0  0  0
   -7.7766   -4.4236    0.0000 C   0  0  0
   -6.7884   -5.5295    0.0000 C   0  0  0
   -9.2590   -4.7295    0.0000 C   0  0  0
   -7.2590   -6.9413    0.0000 C   0  0  0
   -9.7296   -6.1413    0.0000 C   0  0  0
   -8.7413   -7.2472    0.0000 C   0  0  0
   -6.2707   -8.0472    0.0000 C   0  0  0
  -11.1178   -6.7413    0.0000 C   0  0  0
   -9.5061   -8.5413    0.0000 C   0  0  0
   -7.4001   -9.0355    0.0000 F   0  0  0
   -5.2824   -9.1531    0.0000 F   0  0  0
   -5.1648   -7.0354    0.0000 F   0  0  0
  -12.4355   -5.9766    0.0000 O   0  0  0
  -10.9767   -8.2237    0.0000 N   0  0  0
  -12.1061   -9.2119    0.0000 C   0  0  0
  -11.8002  -10.6708    0.0000 C   0  0  0
  -13.5414   -8.7413    0.0000 C   0  0  0
  -12.9296  -11.6590    0.0000 C   0  0  0
  -14.6709   -9.7296    0.0000 C   0  0  0
  -14.3650  -11.1884    0.0000 C   0  0  0
  -12.6238  -13.1179    0.0000 C   0  0  0
  -11.3767  -13.9297    0.0000 C   0  0  0
  -13.4591  -14.3650    0.0000 C   0  0  0
  -14.0591  -12.6473    0.0000 C   0  0  0
  -12.2120  -15.1767    0.0000 O   0  0  0
  -15.1885  -13.6355    0.0000 C   0  0  0
  -16.6709  -13.3061    0.0000 N   0  0  0
  -15.0473  -15.1179    0.0000 N   0  0  0
  -17.4356  -14.6003    0.0000 N   0  0  0
  -16.4356  -15.7179    0.0000 C   0  0  0
  -13.7532  -15.8591    0.0000 C   0  0  0
  1  2  1
  2  3  2
  2  4  1
  3  5  1
  4  6  2
  5  7  2
  5  8  1
  7  9  1
  8 10  1
 10 11  1
 11 12  1
 12 13  2
 12 14  1
 13 15  1
 14 16  2
 15 17  2
 15 18  1
 16 19  1
 17 20  1
 18 21  1
 18 22  1
 18 23  1
 19 24  2
 19 25  1
 25 26  1
 26 27  2
 26 28  1
 27 29  1
 28 30  2
 29 31  2
 29 32  1
 32 33  1
 32 34  1
 32 35  1
 33 36  1
 35 37  1
 37 38  2
 37 39  1
 38 40  1
 39 41  1
 39 42  1
  6  7  1
  9 10  1
 16 17  1
 20 25  1
 30 31  1
 34 36  1
 40 41  2
M  END
> <COMPOUND_NAMES>
Example 655 (Page No: 744)

> <Reference>
WO2019148005

> <IC50_range_nM>
<100

> <smiles>
Cn1cnnc1CC1(COC1)c1cccc(c1)N1Cc2c(cc(CN3Cc4ccc(cc4C3)F)cc2C(F)(F)F)C1=O

$$$$
C31H27ClF3N5O2
  MOLSOFT 03092310482D

 42 48  0  0  0  0  0  0  0  0999 V2000
    0.0000   -0.0000    0.0000 Cl  0  0  0
    0.3062   -1.4603    0.0000 C   0  0  0
   -0.8243   -2.4495    0.0000 C   0  0  0
    1.7193   -1.9078    0.0000 C   0  0  0
   -0.5182   -3.9097    0.0000 C   0  0  0
   -2.3317   -2.2846    0.0000 C   0  0  0
    2.0255   -3.3680    0.0000 C   0  0  0
    0.8950   -4.3572    0.0000 C   0  0  0
   -1.8371   -4.6516    0.0000 C   0  0  0
   -2.9558   -3.6506    0.0000 N   0  0  0
   -4.4397   -3.9568    0.0000 C   0  0  0
   -4.9107   -5.3700    0.0000 C   0  0  0
   -3.9215   -6.4769    0.0000 C   0  0  0
   -6.3945   -5.6762    0.0000 C   0  0  0
   -4.3925   -7.8901    0.0000 C   0  0  0
   -6.8656   -7.0893    0.0000 C   0  0  0
   -5.8764   -8.1963    0.0000 C   0  0  0
   -3.4033   -8.9971    0.0000 C   0  0  0
   -8.2552   -7.6899    0.0000 C   0  0  0
   -6.6418   -9.4917    0.0000 C   0  0  0
   -4.5339   -9.9863    0.0000 F   0  0  0
   -2.4141  -10.1040    0.0000 F   0  0  0
   -2.2964   -7.9843    0.0000 F   0  0  0
   -9.5741   -6.9244    0.0000 O   0  0  0
   -8.1139   -9.1737    0.0000 N   0  0  0
   -9.2444  -10.1629    0.0000 C   0  0  0
   -8.9382  -11.6232    0.0000 C   0  0  0
  -10.6811   -9.6919    0.0000 C   0  0  0
  -10.0687  -12.6124    0.0000 C   0  0  0
  -11.8116  -10.6811    0.0000 C   0  0  0
  -11.5054  -12.1413    0.0000 C   0  0  0
   -9.7625  -14.0726    0.0000 C   0  0  0
   -8.5142  -14.8852    0.0000 C   0  0  0
  -10.5986  -15.3209    0.0000 C   0  0  0
  -11.1992  -13.6016    0.0000 C   0  0  0
   -9.3504  -16.1335    0.0000 O   0  0  0
  -12.3298  -14.5908    0.0000 C   0  0  0
  -13.8136  -14.2611    0.0000 N   0  0  0
  -12.1884  -16.0746    0.0000 N   0  0  0
  -14.5790  -15.5565    0.0000 N   0  0  0
  -13.5780  -16.6752    0.0000 C   0  0  0
  -10.8931  -16.8165    0.0000 C   0  0  0
  1  2  1
  2  3  2
  2  4  1
  3  5  1
  3  6  1
  4  7  2
  5  8  2
  5  9  1
  6 10  1
 10 11  1
 11 12  1
 12 13  2
 12 14  1
 13 15  1
 14 16  2
 15 17  2
 15 18  1
 16 19  1
 17 20  1
 18 21  1
 18 22  1
 18 23  1
 19 24  2
 19 25  1
 25 26  1
 26 27  2
 26 28  1
 27 29  1
 28 30  2
 29 31  2
 29 32  1
 32 33  1
 32 34  1
 32 35  1
 33 36  1
 35 37  1
 37 38  2
 37 39  1
 38 40  1
 39 41  1
 39 42  1
  7  8  1
  9 10  1
 16 17  1
 20 25  1
 30 31  1
 34 36  1
 40 41  2
M  END
> <COMPOUND_NAMES>
Example 657 (Page No: 745)

> <Reference>
WO2019148005

> <IC50_range_nM>
<100

> <smiles>
Cn1cnnc1CC1(COC1)c1cccc(c1)N1Cc2c(cc(CN3Cc4cccc(c4C3)[Cl])cc2C(F)(F)F)C1=O

$$$$
C31H27F4N5O2
  MOLSOFT 03092310482D

 42 48  0  0  0  0  0  0  0  0999 V2000
    0.0000   -0.0000    0.0000 F   0  0  0
    0.3062   -1.4603    0.0000 C   0  0  0
   -0.8243   -2.4495    0.0000 C   0  0  0
    1.7193   -1.9078    0.0000 C   0  0  0
   -0.5182   -3.9097    0.0000 C   0  0  0
   -2.3317   -2.2846    0.0000 C   0  0  0
    2.0255   -3.3680    0.0000 C   0  0  0
    0.8950   -4.3572    0.0000 C   0  0  0
   -1.8371   -4.6516    0.0000 C   0  0  0
   -2.9558   -3.6506    0.0000 N   0  0  0
   -4.4397   -3.9568    0.0000 C   0  0  0
   -4.9107   -5.3700    0.0000 C   0  0  0
   -3.9215   -6.4769    0.0000 C   0  0  0
   -6.3945   -5.6762    0.0000 C   0  0  0
   -4.3925   -7.8901    0.0000 C   0  0  0
   -6.8656   -7.0893    0.0000 C   0  0  0
   -5.8764   -8.1963    0.0000 C   0  0  0
   -3.4033   -8.9971    0.0000 C   0  0  0
   -8.2552   -7.6899    0.0000 C   0  0  0
   -6.6418   -9.4917    0.0000 C   0  0  0
   -4.5339   -9.9863    0.0000 F   0  0  0
   -2.4141  -10.1040    0.0000 F   0  0  0
   -2.2964   -7.9843    0.0000 F   0  0  0
   -9.5741   -6.9244    0.0000 O   0  0  0
   -8.1139   -9.1737    0.0000 N   0  0  0
   -9.2444  -10.1629    0.0000 C   0  0  0
   -8.9382  -11.6232    0.0000 C   0  0  0
  -10.6811   -9.6919    0.0000 C   0  0  0
  -10.0687  -12.6124    0.0000 C   0  0  0
  -11.8116  -10.6811    0.0000 C   0  0  0
  -11.5054  -12.1413    0.0000 C   0  0  0
   -9.7625  -14.0726    0.0000 C   0  0  0
   -8.5142  -14.8852    0.0000 C   0  0  0
  -10.5986  -15.3209    0.0000 C   0  0  0
  -11.1992  -13.6016    0.0000 C   0  0  0
   -9.3504  -16.1335    0.0000 O   0  0  0
  -12.3298  -14.5908    0.0000 C   0  0  0
  -13.8136  -14.2611    0.0000 N   0  0  0
  -12.1884  -16.0746    0.0000 N   0  0  0
  -14.5790  -15.5565    0.0000 N   0  0  0
  -13.5780  -16.6752    0.0000 C   0  0  0
  -10.8931  -16.8165    0.0000 C   0  0  0
  1  2  1
  2  3  2
  2  4  1
  3  5  1
  3  6  1
  4  7  2
  5  8  2
  5  9  1
  6 10  1
 10 11  1
 11 12  1
 12 13  2
 12 14  1
 13 15  1
 14 16  2
 15 17  2
 15 18  1
 16 19  1
 17 20  1
 18 21  1
 18 22  1
 18 23  1
 19 24  2
 19 25  1
 25 26  1
 26 27  2
 26 28  1
 27 29  1
 28 30  2
 29 31  2
 29 32  1
 32 33  1
 32 34  1
 32 35  1
 33 36  1
 35 37  1
 37 38  2
 37 39  1
 38 40  1
 39 41  1
 39 42  1
  7  8  1
  9 10  1
 16 17  1
 20 25  1
 30 31  1
 34 36  1
 40 41  2
M  END
> <COMPOUND_NAMES>
Example 653 (Page No: 743)

> <Reference>
WO2019148005

> <IC50_range_nM>
<100

> <smiles>
Cn1cnnc1CC1(COC1)c1cccc(c1)N1Cc2c(cc(CN3Cc4cccc(c4C3)F)cc2C(F)(F)F)C1=O

$$$$
C32H27F3N6O2
  MOLSOFT 03092310482D

 43 49  0  0  0  0  0  0  0  0999 V2000
    0.0000   -0.0000    0.0000 F   0  0  0
    1.1042    1.0102    0.0000 C   0  0  0
    2.0909   -0.0940    0.0000 F   0  0  0
    2.2084    2.0204    0.0000 F   0  0  0
    0.0940    2.1379    0.0000 C   0  0  0
   -1.3861    1.8325    0.0000 C   0  0  0
    0.5403    3.5710    0.0000 C   0  0  0
   -2.3963    2.9602    0.0000 C   0  0  0
   -2.1496    0.5403    0.0000 C   0  0  0
   -0.4699    4.6987    0.0000 C   0  0  0
   -3.7824    2.3611    0.0000 C   0  0  0
   -1.9499    4.3932    0.0000 C   0  0  0
   -3.6297    0.8693    0.0000 N   0  0  0
   -0.0235    6.1317    0.0000 C   0  0  0
   -5.0980    3.1246    0.0000 O   0  0  0
   -4.7574   -0.1175    0.0000 C   0  0  0
    1.4331    6.4606    0.0000 N   0  0  0
   -4.4520   -1.5740    0.0000 C   0  0  0
   -6.1905    0.3524    0.0000 C   0  0  0
    2.0322    7.8468    0.0000 C   0  0  0
    2.5373    5.4739    0.0000 C   0  0  0
   -5.5797   -2.5608    0.0000 C   0  0  0
   -7.3182   -0.6343    0.0000 C   0  0  0
    3.5122    7.7058    0.0000 C   0  0  0
    3.8294    6.2375    0.0000 C   0  0  0
   -7.0127   -2.0909    0.0000 C   0  0  0
   -5.2742   -4.0173    0.0000 C   0  0  0
    4.6164    8.7160    0.0000 C   0  0  0
    5.2390    5.7911    0.0000 C   0  0  0
   -4.0291   -4.8279    0.0000 C   0  0  0
   -6.1082   -5.2625    0.0000 C   0  0  0
   -6.7073   -3.5475    0.0000 C   0  0  0
    4.2875   10.1961    0.0000 C   0  0  0
    6.0260    8.2696    0.0000 C   0  0  0
    6.3432    6.8013    0.0000 C   0  0  0
   -4.8631   -6.0730    0.0000 O   0  0  0
   -7.8350   -4.5342    0.0000 C   0  0  0
    3.9586   11.6762    0.0000 N   0  0  0
   -9.3151   -4.2053    0.0000 N   0  0  0
   -7.6940   -6.0143    0.0000 N   0  0  0
  -10.0786   -5.4974    0.0000 N   0  0  0
   -9.0801   -6.6134    0.0000 C   0  0  0
   -6.4019   -6.7543    0.0000 C   0  0  0
  1  2  1
  2  3  1
  2  4  1
  2  5  1
  5  6  2
  5  7  1
  6  8  1
  6  9  1
  7 10  2
  8 11  1
  8 12  2
  9 13  1
 10 14  1
 11 15  2
 13 16  1
 14 17  1
 16 18  2
 16 19  1
 17 20  1
 17 21  1
 18 22  1
 19 23  2
 20 24  1
 21 25  1
 22 26  2
 22 27  1
 24 28  1
 25 29  1
 27 30  1
 27 31  1
 27 32  1
 28 33  1
 28 34  2
 29 35  2
 30 36  1
 32 37  1
 33 38  3
 37 39  2
 37 40  1
 39 41  1
 40 42  1
 40 43  1
 10 12  1
 11 13  1
 23 26  1
 24 25  2
 31 36  1
 34 35  1
 41 42  2
M  END
> <COMPOUND_NAMES>
Example 658 (Page No: 745)

> <Reference>
WO2019148005

> <IC50_range_nM>
<100

> <smiles>
Cn1cnnc1CC1(COC1)c1cccc(c1)N1Cc2c(cc(CN3Cc4cccc(C#N)c4C3)cc2C(F)(F)F)C1=O

$$$$
C32H30F3N5O3
  MOLSOFT 03092310482D

 43 49  0  0  0  0  0  0  0  0999 V2000
    0.0000   -0.0000    0.0000 F   0  0  0
   -0.0119   -1.4933    0.0000 C   0  0  0
   -1.5289   -1.4814    0.0000 F   0  0  0
   -0.0237   -2.9866    0.0000 F   0  0  0
    1.4814   -1.4814    0.0000 C   0  0  0
    2.2162   -2.7733    0.0000 C   0  0  0
    2.2162   -0.1659    0.0000 C   0  0  0
    3.7095   -2.7614    0.0000 C   0  0  0
    1.7422   -4.1955    0.0000 C   0  0  0
    3.7095   -0.1541    0.0000 C   0  0  0
    4.1599   -4.1836    0.0000 C   0  0  0
    4.4562   -1.4459    0.0000 C   0  0  0
    2.9510   -5.0725    0.0000 N   0  0  0
    4.4562    1.1615    0.0000 C   0  0  0
    5.5821   -4.6340    0.0000 O   0  0  0
    2.9392   -6.5658    0.0000 C   0  0  0
    5.9495    1.1733    0.0000 N   0  0  0
    4.2310   -7.3006    0.0000 C   0  0  0
    1.6237   -7.3006    0.0000 C   0  0  0
    6.8265    2.4059    0.0000 C   0  0  0
    6.8265   -0.0356    0.0000 C   0  0  0
    4.2192   -8.7939    0.0000 C   0  0  0
    1.6118   -8.7939    0.0000 C   0  0  0
    8.2487    1.9555    0.0000 C   0  0  0
    8.2487    0.4385    0.0000 C   0  0  0
    2.9036   -9.5405    0.0000 C   0  0  0
    5.5110   -9.5405    0.0000 C   0  0  0
    9.5405    2.7259    0.0000 C   0  0  0
    9.5405   -0.3081    0.0000 C   0  0  0
    6.9569   -9.1376    0.0000 C   0  0  0
    5.8902  -10.9864    0.0000 C   0  0  0
    4.1955  -10.2753    0.0000 C   0  0  0
    9.5287    4.2429    0.0000 O   0  0  0
   10.8323    1.9792    0.0000 C   0  0  0
   10.8323    0.4622    0.0000 C   0  0  0
    7.3361  -10.5834    0.0000 O   0  0  0
    4.1836  -11.7686    0.0000 C   0  0  0
   10.8205    5.0014    0.0000 C   0  0  0
    5.3925  -12.6456    0.0000 N   0  0  0
    2.9510  -12.6456    0.0000 N   0  0  0
    4.9184  -14.0678    0.0000 N   0  0  0
    3.4014  -14.0678    0.0000 C   0  0  0
    1.5051  -12.1716    0.0000 C   0  0  0
  1  2  1
  2  3  1
  2  4  1
  2  5  1
  5  6  2
  5  7  1
  6  8  1
  6  9  1
  7 10  2
  8 11  1
  8 12  2
  9 13  1
 10 14  1
 11 15  2
 13 16  1
 14 17  1
 16 18  2
 16 19  1
 17 20  1
 17 21  1
 18 22  1
 19 23  2
 20 24  1
 21 25  1
 22 26  2
 22 27  1
 24 28  1
 25 29  1
 27 30  1
 27 31  1
 27 32  1
 28 33  1
 28 34  2
 29 35  2
 30 36  1
 32 37  1
 33 38  1
 37 39  2
 37 40  1
 39 41  1
 40 42  1
 40 43  1
 10 12  1
 11 13  1
 23 26  1
 24 25  2
 31 36  1
 34 35  1
 41 42  2
M  END
> <COMPOUND_NAMES>
Example 702 (Page No: 780)

> <Reference>
WO2019148005

> <IC50_range_nM>
<100

> <smiles>
Cn1cnnc1CC1(COC1)c1cccc(c1)N1Cc2c(cc(CN3Cc4cccc(c4C3)OC)cc2C(F)(F)F)C1=O

$$$$
C32H30F3N5O3
  MOLSOFT 03092310482D

 43 49  0  0  0  0  0  0  0  0999 V2000
    0.0000   -0.0000    0.0000 F   0  0  0
   -0.0117    1.5029    0.0000 C   0  0  0
    1.4677    1.5146    0.0000 F   0  0  0
   -0.0235    3.0058    0.0000 F   0  0  0
   -1.5146    1.5146    0.0000 C   0  0  0
   -2.2661    2.8179    0.0000 C   0  0  0
   -2.2661    0.2348    0.0000 C   0  0  0
   -3.7690    2.8297    0.0000 C   0  0  0
   -1.8199    4.2504    0.0000 C   0  0  0
   -3.7690    0.2466    0.0000 C   0  0  0
   -4.2386    4.2621    0.0000 C   0  0  0
   -4.5322    1.5499    0.0000 C   0  0  0
   -3.0410    5.1427    0.0000 N   0  0  0
   -4.5322   -1.0332    0.0000 C   0  0  0
   -5.6711    4.7318    0.0000 O   0  0  0
   -3.0528    6.6456    0.0000 C   0  0  0
   -6.0351   -1.0215    0.0000 N   0  0  0
   -4.3561    7.3971    0.0000 C   0  0  0
   -1.7729    7.3971    0.0000 C   0  0  0
   -6.9274    0.1996    0.0000 C   0  0  0
   -6.9274   -2.2191    0.0000 C   0  0  0
   -4.3678    8.9000    0.0000 C   0  0  0
   -1.7847    8.9000    0.0000 C   0  0  0
   -8.3599   -0.2466    0.0000 C   0  0  0
   -8.3599   -1.7495    0.0000 C   0  0  0
   -3.0880    9.6514    0.0000 C   0  0  0
   -5.6711    9.6514    0.0000 C   0  0  0
   -9.6632    0.5049    0.0000 C   0  0  0
   -9.6632   -2.4774    0.0000 C   0  0  0
   -7.1270    9.2757    0.0000 C   0  0  0
   -6.0703   11.1073    0.0000 C   0  0  0
   -4.3913   10.4029    0.0000 C   0  0  0
  -10.9664   -0.2231    0.0000 C   0  0  0
  -10.9664   -1.7260    0.0000 C   0  0  0
   -7.5262   10.7316    0.0000 O   0  0  0
   -4.4030   11.9058    0.0000 C   0  0  0
  -12.2697    0.5284    0.0000 O   0  0  0
   -5.6241   12.7981    0.0000 N   0  0  0
   -3.2054   12.7981    0.0000 N   0  0  0
  -13.5730   -0.1996    0.0000 C   0  0  0
   -5.1779   14.2306    0.0000 N   0  0  0
   -3.6751   14.2306    0.0000 C   0  0  0
   -1.7964   12.3519    0.0000 C   0  0  0
  1  2  1
  2  3  1
  2  4  1
  2  5  1
  5  6  2
  5  7  1
  6  8  1
  6  9  1
  7 10  2
  8 11  1
  8 12  2
  9 13  1
 10 14  1
 11 15  2
 13 16  1
 14 17  1
 16 18  2
 16 19  1
 17 20  1
 17 21  1
 18 22  1
 19 23  2
 20 24  1
 21 25  1
 22 26  2
 22 27  1
 24 28  1
 25 29  1
 27 30  1
 27 31  1
 27 32  1
 28 33  2
 29 34  2
 30 35  1
 32 36  1
 33 37  1
 36 38  2
 36 39  1
 37 40  1
 38 41  1
 39 42  1
 39 43  1
 10 12  1
 11 13  1
 23 26  1
 24 25  2
 31 35  1
 33 34  1
 41 42  2
M  END
> <COMPOUND_NAMES>
Example 656 (Page No: 744)

> <Reference>
WO2019148005

> <IC50_range_nM>
<100

> <smiles>
Cn1cnnc1CC1(COC1)c1cccc(c1)N1Cc2c(cc(CN3Cc4ccc(cc4C3)OC)cc2C(F)(F)F)C1=O

$$$$
C26H26F3N5O2
  MOLSOFT 03092310482D

 36 41  0  0  0  0  0  0  0  0999 V2000
    0.0000   -0.0000    0.0000 F   0  0  0
   -0.0118   -1.4879    0.0000 C   0  0  0
    1.4761   -1.4761    0.0000 F   0  0  0
   -1.5234   -1.4761    0.0000 F   0  0  0
   -0.0236   -2.9759    0.0000 C   0  0  0
   -1.3344   -3.7080    0.0000 C   0  0  0
    1.2636   -3.7080    0.0000 C   0  0  0
   -1.3462   -5.1960    0.0000 C   0  0  0
   -2.7751   -3.2357    0.0000 C   0  0  0
    1.2518   -5.1960    0.0000 C   0  0  0
   -2.7869   -5.6447    0.0000 C   0  0  0
   -0.0590   -5.9281    0.0000 C   0  0  0
   -3.6726   -4.4402    0.0000 N   0  0  0
    2.5389   -5.9281    0.0000 N   0  0  0
   -3.2593   -7.0618    0.0000 O   0  0  0
   -5.1842   -4.4284    0.0000 C   0  0  0
    2.9168   -7.3688    0.0000 C   0  0  0
    3.9797   -5.5266    0.0000 C   0  0  0
   -5.9400   -5.7156    0.0000 C   0  0  0
   -5.9400   -3.1176    0.0000 C   0  0  0
    4.3575   -6.9673    0.0000 C   0  0  0
   -7.4515   -5.7038    0.0000 C   0  0  0
   -7.4515   -3.1058    0.0000 C   0  0  0
    5.6447   -7.6995    0.0000 C   0  0  0
   -8.2073   -4.3930    0.0000 C   0  0  0
   -8.2073   -6.9910    0.0000 C   0  0  0
   -7.8294   -8.4317    0.0000 C   0  0  0
   -9.6716   -7.3688    0.0000 C   0  0  0
   -8.9631   -5.6802    0.0000 C   0  0  0
   -9.2937   -8.8096    0.0000 O   0  0  0
  -10.4746   -5.6683    0.0000 C   0  0  0
  -11.3721   -6.8729    0.0000 N   0  0  0
  -11.3721   -4.4402    0.0000 N   0  0  0
  -12.8128   -6.4005    0.0000 N   0  0  0
  -12.8128   -4.8889    0.0000 C   0  0  0
  -10.9234   -2.9995    0.0000 C   0  0  0
  1  2  1
  2  3  1
  2  4  1
  2  5  1
  5  6  2
  5  7  1
  6  8  1
  6  9  1
  7 10  2
  8 11  1
  8 12  2
  9 13  1
 10 14  1
 11 15  2
 13 16  1
 14 17  1
 14 18  1
 16 19  2
 16 20  1
 17 21  1
 19 22  1
 20 23  2
 21 24  1
 22 25  2
 22 26  1
 26 27  1
 26 28  1
 26 29  1
 27 30  1
 29 31  1
 31 32  2
 31 33  1
 32 34  1
 33 35  1
 33 36  1
 10 12  1
 11 13  1
 18 21  1
 23 25  1
 28 30  1
 34 35  2
M  END
> <COMPOUND_NAMES>
Example 607 (Page No: 719)

> <Reference>
WO2019148005

> <IC50_range_nM>
<100

> <smiles>
CC1CN(C1)c1cc2C(N(Cc2c(c1)C(F)(F)F)c1cccc(c1)C1(Cc2nncn2C)COC1)=O

$$$$
C27H28F3N5O2
  MOLSOFT 03092310482D

 37 42  0  0  0  0  0  0  0  0999 V2000
    0.0000   -0.0000    0.0000 F   0  0  0
   -0.0118   -1.4879    0.0000 C   0  0  0
    1.4761   -1.4761    0.0000 F   0  0  0
   -1.5233   -1.4761    0.0000 F   0  0  0
   -0.0236   -2.9758    0.0000 C   0  0  0
   -1.3344   -3.7080    0.0000 C   0  0  0
    1.2635   -3.7080    0.0000 C   0  0  0
   -1.3462   -5.1959    0.0000 C   0  0  0
   -2.7751   -3.2356    0.0000 C   0  0  0
    1.2517   -5.1959    0.0000 C   0  0  0
   -2.7869   -5.6446    0.0000 C   0  0  0
   -0.0590   -5.9280    0.0000 C   0  0  0
   -3.6725   -4.4401    0.0000 N   0  0  0
    2.5389   -5.9280    0.0000 N   0  0  0
   -3.2592   -7.0617    0.0000 O   0  0  0
   -5.1841   -4.4283    0.0000 C   0  0  0
    3.9796   -5.5265    0.0000 C   0  0  3
    2.9168   -7.3687    0.0000 C   0  0  0
   -5.9398   -5.7155    0.0000 C   0  0  0
   -5.9398   -3.1175    0.0000 C   0  0  0
    4.3574   -6.9672    0.0000 C   0  0  3
    4.7117   -4.2157    0.0000 C   0  0  0
   -7.4513   -5.7036    0.0000 C   0  0  0
   -7.4513   -3.1057    0.0000 C   0  0  0
    5.6446   -7.6993    0.0000 C   0  0  0
   -8.2071   -4.3929    0.0000 C   0  0  0
   -8.2071   -6.9908    0.0000 C   0  0  0
   -7.8292   -8.4315    0.0000 C   0  0  0
   -9.6714   -7.3687    0.0000 C   0  0  0
   -8.9629   -5.6800    0.0000 C   0  0  0
   -9.2935   -8.8094    0.0000 O   0  0  0
  -10.4744   -5.6682    0.0000 C   0  0  0
  -11.3719   -6.8727    0.0000 N   0  0  0
  -11.3719   -4.4401    0.0000 N   0  0  0
  -12.8125   -6.4004    0.0000 N   0  0  0
  -12.8125   -4.8888    0.0000 C   0  0  0
  -10.9231   -2.9994    0.0000 C   0  0  0
  1  2  1
  2  3  1
  2  4  1
  2  5  1
  5  6  2
  5  7  1
  6  8  1
  6  9  1
  7 10  2
  8 11  1
  8 12  2
  9 13  1
 10 14  1
 11 15  2
 13 16  1
 17 14  1
 14 18  1
 16 19  2
 16 20  1
 17 21  1
 17 22  1
 19 23  1
 20 24  2
 21 25  1
 23 26  2
 23 27  1
 27 28  1
 27 29  1
 27 30  1
 28 31  1
 30 32  1
 32 33  2
 32 34  1
 33 35  1
 34 36  1
 34 37  1
 10 12  1
 11 13  1
 21 18  1
 24 26  1
 29 31  1
 35 36  2
M  END
> <COMPOUND_NAMES>
Example 608 (+/-) (Page No: 720)

> <Reference>
WO2019148005

> <IC50_range_nM>
<100

> <smiles>
CC1CN(C1C)c1cc2C(N(Cc2c(c1)C(F)(F)F)c1cccc(c1)C1(Cc2nncn2C)COC1)=O

$$$$
C26H24F5N5O2
  MOLSOFT 03092310482D

 38 43  0  0  0  0  0  0  0  0999 V2000
    0.0000   -0.0000    0.0000 F   0  0  0
    1.1016    1.0079    0.0000 C   0  0  0
    2.0978   -0.0938    0.0000 F   0  0  0
    2.2032    2.0275    0.0000 F   0  0  0
    0.0820    2.1329    0.0000 C   0  0  0
   -1.3946    1.8282    0.0000 C   0  0  0
    0.5274    3.5627    0.0000 C   0  0  0
   -2.4142    2.9533    0.0000 C   0  0  0
   -2.1564    0.5391    0.0000 C   0  0  0
   -0.4922    4.6878    0.0000 C   0  0  0
   -3.7971    2.3556    0.0000 C   0  0  0
   -1.9689    4.3831    0.0000 C   0  0  0
   -3.6330    0.8672    0.0000 N   0  0  0
   -0.0469    6.1175    0.0000 N   0  0  0
   -5.1097    3.1174    0.0000 O   0  0  0
   -4.7581   -0.1289    0.0000 C   0  0  0
   -0.7383    7.4653    0.0000 C   0  0  0
    1.2774    6.8090    0.0000 C   0  0  0
   -4.4534   -1.5821    0.0000 C   0  0  0
   -6.1878    0.3399    0.0000 C   0  0  0
    0.5860    8.1567    0.0000 C   0  0  0
   -5.5784   -2.5665    0.0000 C   0  0  0
   -7.3129   -0.6563    0.0000 C   0  0  0
    1.0313    9.5865    0.0000 C   0  0  0
   -7.0199   -2.0978    0.0000 C   0  0  0
   -5.2737   -4.0198    0.0000 C   0  0  0
    2.4845    9.9146    0.0000 F   0  0  0
    0.0117   10.7115    0.0000 F   0  0  0
   -4.0315   -4.8284    0.0000 C   0  0  0
   -6.1058   -5.2620    0.0000 C   0  0  0
   -6.7035   -3.5510    0.0000 C   0  0  0
   -4.8636   -6.0706    0.0000 O   0  0  0
   -7.8286   -4.5471    0.0000 C   0  0  0
   -9.3052   -4.2190    0.0000 N   0  0  0
   -7.6879   -6.0238    0.0000 N   0  0  0
  -10.0670   -5.5081    0.0000 N   0  0  0
   -9.0708   -6.6215    0.0000 C   0  0  0
   -6.3988   -6.7621    0.0000 C   0  0  0
  1  2  1
  2  3  1
  2  4  1
  2  5  1
  5  6  2
  5  7  1
  6  8  1
  6  9  1
  7 10  2
  8 11  1
  8 12  2
  9 13  1
 10 14  1
 11 15  2
 13 16  1
 14 17  1
 14 18  1
 16 19  2
 16 20  1
 17 21  1
 19 22  1
 20 23  2
 21 24  1
 22 25  2
 22 26  1
 24 27  1
 24 28  1
 26 29  1
 26 30  1
 26 31  1
 29 32  1
 31 33  1
 33 34  2
 33 35  1
 34 36  1
 35 37  1
 35 38  1
 10 12  1
 11 13  1
 18 21  1
 23 25  1
 30 32  1
 36 37  2
M  END
> <COMPOUND_NAMES>
Example 594 (Page No: 713)

> <Reference>
WO2019148005

> <IC50_range_nM>
<100

> <smiles>
Cn1cnnc1CC1(COC1)c1cccc(c1)N1Cc2c(cc(cc2C(F)(F)F)N2CC(C2)C(F)F)C1=O

$$$$
C26H23F6N5O2
  MOLSOFT 03092310482D

 39 44  0  0  0  0  0  0  0  0999 V2000
    0.0000   -0.0000    0.0000 F   0  0  0
    1.1021    1.0083    0.0000 C   0  0  0
    2.0988   -0.0938    0.0000 F   0  0  0
    2.2043    2.0284    0.0000 F   0  0  0
    0.0821    2.1339    0.0000 C   0  0  0
   -1.3953    1.8291    0.0000 C   0  0  0
    0.5276    3.5644    0.0000 C   0  0  0
   -2.4153    2.9547    0.0000 C   0  0  0
   -2.1574    0.5393    0.0000 C   0  0  0
   -0.4924    4.6899    0.0000 C   0  0  0
   -3.7989    2.3567    0.0000 C   0  0  0
   -1.9698    4.3851    0.0000 C   0  0  0
   -3.6347    0.8676    0.0000 N   0  0  0
   -0.0469    6.1204    0.0000 N   0  0  0
   -5.1120    3.1188    0.0000 O   0  0  0
   -4.7603   -0.1290    0.0000 C   0  0  0
   -0.7387    7.4687    0.0000 C   0  0  0
    1.2780    6.8122    0.0000 C   0  0  0
   -4.4555   -1.5829    0.0000 C   0  0  0
   -6.1907    0.3400    0.0000 C   0  0  0
    0.5862    8.1605    0.0000 C   0  0  0
   -5.5810   -2.5677    0.0000 C   0  0  0
   -7.3163   -0.6566    0.0000 C   0  0  0
    1.0318    9.5909    0.0000 C   0  0  0
   -7.0232   -2.0988    0.0000 C   0  0  0
   -5.2762   -4.0216    0.0000 C   0  0  0
    2.4388    9.1454    0.0000 F   0  0  0
    1.4773   11.0214    0.0000 F   0  0  0
   -0.3986   10.0599    0.0000 F   0  0  0
   -4.0334   -4.8306    0.0000 C   0  0  0
   -6.1087   -5.2645    0.0000 C   0  0  0
   -6.7066   -3.5526    0.0000 C   0  0  0
   -4.8658   -6.0735    0.0000 O   0  0  0
   -7.8322   -4.5493    0.0000 C   0  0  0
   -9.3095   -4.2210    0.0000 N   0  0  0
   -7.6915   -6.0266    0.0000 N   0  0  0
  -10.0717   -5.5107    0.0000 N   0  0  0
   -9.0751   -6.6246    0.0000 C   0  0  0
   -6.4018   -6.7653    0.0000 C   0  0  0
  1  2  1
  2  3  1
  2  4  1
  2  5  1
  5  6  2
  5  7  1
  6  8  1
  6  9  1
  7 10  2
  8 11  1
  8 12  2
  9 13  1
 10 14  1
 11 15  2
 13 16  1
 14 17  1
 14 18  1
 16 19  2
 16 20  1
 17 21  1
 19 22  1
 20 23  2
 21 24  1
 22 25  2
 22 26  1
 24 27  1
 24 28  1
 24 29  1
 26 30  1
 26 31  1
 26 32  1
 30 33  1
 32 34  1
 34 35  2
 34 36  1
 35 37  1
 36 38  1
 36 39  1
 10 12  1
 11 13  1
 18 21  1
 23 25  1
 31 33  1
 37 38  2
M  END
> <COMPOUND_NAMES>
Example 600 (Page No: 716)

> <Reference>
WO2019148005

> <IC50_range_nM>
<100

> <smiles>
Cn1cnnc1CC1(COC1)c1cccc(c1)N1Cc2c(cc(cc2C(F)(F)F)N2CC(C2)C(F)(F)F)C1=O

$$$$
C27H26F5N5O2
  MOLSOFT 03092310482D

 39 44  0  0  0  0  0  0  0  0999 V2000
    0.0000   -0.0000    0.0000 F   0  0  0
    1.0977    1.0151    0.0000 C   0  0  0
    2.0892   -0.0826    0.0000 F   0  0  0
    2.1954    2.0302    0.0000 F   0  0  0
    0.0826    2.1364    0.0000 C   0  0  0
   -1.3928    1.8413    0.0000 C   0  0  0
    0.5312    3.5764    0.0000 C   0  0  0
   -2.4079    2.9627    0.0000 C   0  0  0
   -2.1600    0.5548    0.0000 C   0  0  0
   -0.4839    4.6978    0.0000 C   0  0  0
   -3.7889    2.3607    0.0000 C   0  0  0
   -1.9594    4.4027    0.0000 C   0  0  0
   -3.6355    0.8735    0.0000 N   0  0  0
   -0.0354    6.1378    0.0000 N   0  0  0
   -5.0991    3.1161    0.0000 O   0  0  0
   -4.7568   -0.1180    0.0000 C   0  0  0
    1.3810    6.6099    0.0000 C   0  0  0
   -0.9325    7.3653    0.0000 C   0  0  0
   -4.4617   -1.5699    0.0000 C   0  0  0
   -6.1968    0.3541    0.0000 C   0  0  0
    1.3692    8.1207    0.0000 C   0  0  3
   -0.0590    8.5929    0.0000 C   0  0  0
   -5.5830   -2.5613    0.0000 C   0  0  0
   -7.3181   -0.6374    0.0000 C   0  0  0
    2.5731    9.0178    0.0000 C   0  0  0
   -7.0230   -2.0892    0.0000 C   0  0  0
   -5.2879   -4.0132    0.0000 C   0  0  0
    3.9305    8.4158    0.0000 F   0  0  0
    2.4079   10.5168    0.0000 F   0  0  0
   -4.0368   -4.8158    0.0000 C   0  0  0
   -6.1142   -5.2643    0.0000 C   0  0  0
   -6.7279   -3.5410    0.0000 C   0  0  0
   -4.8630   -6.0670    0.0000 O   0  0  0
   -7.8493   -4.5325    0.0000 C   0  0  0
   -9.3247   -4.2138    0.0000 N   0  0  0
   -7.7076   -6.0079    0.0000 N   0  0  0
  -10.0801   -5.5004    0.0000 N   0  0  0
   -9.0886   -6.6099    0.0000 C   0  0  0
   -6.4211   -6.7397    0.0000 C   0  0  0
  1  2  1
  2  3  1
  2  4  1
  2  5  1
  5  6  2
  5  7  1
  6  8  1
  6  9  1
  7 10  2
  8 11  1
  8 12  2
  9 13  1
 10 14  1
 11 15  2
 13 16  1
 14 17  1
 14 18  1
 16 19  2
 16 20  1
 21 17  1
 18 22  1
 19 23  1
 20 24  2
 21 25  1
 23 26  2
 23 27  1
 25 28  1
 25 29  1
 27 30  1
 27 31  1
 27 32  1
 30 33  1
 32 34  1
 34 35  2
 34 36  1
 35 37  1
 36 38  1
 36 39  1
 10 12  1
 11 13  1
 21 22  1
 24 26  1
 31 33  1
 37 38  2
M  END
> <COMPOUND_NAMES>
Example 601 (+/-) (Page No: 717)

> <Reference>
WO2019148005

> <IC50_range_nM>
<100

> <smiles>
Cn1cnnc1CC1(COC1)c1cccc(c1)N1Cc2c(cc(cc2C(F)(F)F)N2CCC(C2)C(F)F)C1=O

$$$$
C28H31F3N6O2
  MOLSOFT 03092310482D

 39 44  0  0  1  0  0  0  0  0999 V2000
    0.0000   -0.0000    0.0000 F   0  0  0
   -0.0118   -1.4887    0.0000 C   0  0  0
    1.4769   -1.4769    0.0000 F   0  0  0
   -1.5242   -1.4769    0.0000 F   0  0  0
   -0.0236   -2.9775    0.0000 C   0  0  0
   -1.3351   -3.7100    0.0000 C   0  0  0
    1.2642   -3.7100    0.0000 C   0  0  0
   -1.3470   -5.1988    0.0000 C   0  0  0
   -2.7766   -3.2374    0.0000 C   0  0  0
    1.2524   -5.1988    0.0000 C   0  0  0
   -2.7884   -5.6478    0.0000 C   0  0  0
   -0.0591   -5.9313    0.0000 C   0  0  0
   -3.6746   -4.4426    0.0000 N   0  0  0
    2.5403   -5.9313    0.0000 N   0  0  0
   -3.2611   -7.0656    0.0000 O   0  0  0
   -5.1870   -4.4308    0.0000 C   0  0  0
    3.8282   -5.1751    0.0000 C   0  0  2
    2.5285   -7.4201    0.0000 C   0  0  0
   -5.9431   -5.7187    0.0000 C   0  0  0
   -5.9431   -3.1193    0.0000 C   0  0  0
    5.1161   -5.9077    0.0000 C   0  0  0
    3.8164   -3.6628    0.0000 C   0  0  0
    3.8164   -8.1526    0.0000 C   0  0  0
   -7.4555   -5.7068    0.0000 C   0  0  0
   -7.4555   -3.1075    0.0000 C   0  0  0
    5.1043   -7.3964    0.0000 N   0  0  0
   -8.2117   -4.3953    0.0000 C   0  0  0
   -8.2117   -6.9947    0.0000 C   0  0  0
    6.3921   -8.1290    0.0000 C   0  0  0
   -7.8336   -8.4362    0.0000 C   0  0  0
   -9.6768   -7.3728    0.0000 C   0  0  0
   -8.9679   -5.6832    0.0000 C   0  0  0
   -9.2987   -8.8143    0.0000 O   0  0  0
  -10.4803   -5.6714    0.0000 C   0  0  0
  -11.3782   -6.8766    0.0000 N   0  0  0
  -11.3782   -4.4426    0.0000 N   0  0  0
  -12.8197   -6.4039    0.0000 N   0  0  0
  -12.8197   -4.8916    0.0000 C   0  0  0
  -10.9292   -3.0011    0.0000 C   0  0  0
  1  2  1
  2  3  1
  2  4  1
  2  5  1
  5  6  2
  5  7  1
  6  8  1
  6  9  1
  7 10  2
  8 11  1
  8 12  2
  9 13  1
 10 14  1
 11 15  2
 13 16  1
 17 14  1
 14 18  1
 16 19  2
 16 20  1
 17 21  1
 17 22  1  1  0
 18 23  1
 19 24  1
 20 25  2
 21 26  1
 24 27  2
 24 28  1
 26 29  1
 28 30  1
 28 31  1
 28 32  1
 30 33  1
 32 34  1
 34 35  2
 34 36  1
 35 37  1
 36 38  1
 36 39  1
 10 12  1
 11 13  1
 23 26  1
 25 27  1
 31 33  1
 37 38  2
M  END
> <COMPOUND_NAMES>
Example 389 (S) (Page No: 565)

> <Reference>
WO2019148005

> <IC50_range_nM>
<100

> <smiles>
C[C@H]1CN(C)CCN1c1cc2C(N(Cc2c(c1)C(F)(F)F)c1cccc(c1)C1(Cc2nncn2C)COC1)=O

$$$$
C28H31F3N6O2
  MOLSOFT 03092310482D

 39 44  0  0  1  0  0  0  0  0999 V2000
    0.0000   -0.0000    0.0000 F   0  0  0
   -0.0118   -1.4887    0.0000 C   0  0  0
    1.4769   -1.4769    0.0000 F   0  0  0
   -1.5242   -1.4769    0.0000 F   0  0  0
   -0.0236   -2.9775    0.0000 C   0  0  0
   -1.3351   -3.7100    0.0000 C   0  0  0
    1.2642   -3.7100    0.0000 C   0  0  0
   -1.3470   -5.1988    0.0000 C   0  0  0
   -2.7766   -3.2374    0.0000 C   0  0  0
    1.2524   -5.1988    0.0000 C   0  0  0
   -2.7884   -5.6478    0.0000 C   0  0  0
   -0.0591   -5.9313    0.0000 C   0  0  0
   -3.6746   -4.4426    0.0000 N   0  0  0
    2.5403   -5.9313    0.0000 N   0  0  0
   -3.2611   -7.0656    0.0000 O   0  0  0
   -5.1870   -4.4308    0.0000 C   0  0  0
    3.8282   -5.1751    0.0000 C   0  0  1
    2.5285   -7.4201    0.0000 C   0  0  0
   -5.9431   -5.7187    0.0000 C   0  0  0
   -5.9431   -3.1193    0.0000 C   0  0  0
    5.1161   -5.9077    0.0000 C   0  0  0
    3.8164   -3.6628    0.0000 C   0  0  0
    3.8164   -8.1526    0.0000 C   0  0  0
   -7.4555   -5.7068    0.0000 C   0  0  0
   -7.4555   -3.1075    0.0000 C   0  0  0
    5.1043   -7.3964    0.0000 N   0  0  0
   -8.2117   -4.3953    0.0000 C   0  0  0
   -8.2117   -6.9947    0.0000 C   0  0  0
    6.3921   -8.1290    0.0000 C   0  0  0
   -7.8336   -8.4362    0.0000 C   0  0  0
   -9.6768   -7.3728    0.0000 C   0  0  0
   -8.9679   -5.6832    0.0000 C   0  0  0
   -9.2987   -8.8143    0.0000 O   0  0  0
  -10.4803   -5.6714    0.0000 C   0  0  0
  -11.3782   -6.8766    0.0000 N   0  0  0
  -11.3782   -4.4426    0.0000 N   0  0  0
  -12.8197   -6.4039    0.0000 N   0  0  0
  -12.8197   -4.8916    0.0000 C   0  0  0
  -10.9292   -3.0011    0.0000 C   0  0  0
  1  2  1
  2  3  1
  2  4  1
  2  5  1
  5  6  2
  5  7  1
  6  8  1
  6  9  1
  7 10  2
  8 11  1
  8 12  2
  9 13  1
 10 14  1
 11 15  2
 13 16  1
 17 14  1
 14 18  1
 16 19  2
 16 20  1
 17 21  1
 17 22  1  6  0
 18 23  1
 19 24  1
 20 25  2
 21 26  1
 24 27  2
 24 28  1
 26 29  1
 28 30  1
 28 31  1
 28 32  1
 30 33  1
 32 34  1
 34 35  2
 34 36  1
 35 37  1
 36 38  1
 36 39  1
 10 12  1
 11 13  1
 23 26  1
 25 27  1
 31 33  1
 37 38  2
M  END
> <COMPOUND_NAMES>
Example 390 (R) (Page No: 566)

> <Reference>
WO2019148005

> <IC50_range_nM>
<100

> <smiles>
C[C@@H]1CN(C)CCN1c1cc2C(N(Cc2c(c1)C(F)(F)F)c1cccc(c1)C1(Cc2nncn2C)COC1)=O

$$$$
C28H26F5N5O2
  MOLSOFT 03092310482D

 40 46  0  0  0  0  0  0  0  0999 V2000
    0.0000   -0.0000    0.0000 F   0  0  0
   -1.0114    1.1290    0.0000 C   0  0  0
    0.4469    1.4583    0.0000 F   0  0  0
   -2.3638    0.4587    0.0000 C   0  0  0
   -1.7053    2.4814    0.0000 C   0  0  0
   -3.7163   -0.2117    0.0000 C   0  0  0
   -1.6935   -0.8703    0.0000 C   0  0  0
   -3.0577    1.8111    0.0000 C   0  0  0
   -3.0459   -1.5406    0.0000 N   0  0  0
   -3.5164   -2.9519    0.0000 C   0  0  0
   -2.5285   -4.0573    0.0000 C   0  0  0
   -4.9982   -3.2576    0.0000 C   0  0  0
   -2.9989   -5.4686    0.0000 C   0  0  0
   -5.4686   -4.6689    0.0000 C   0  0  0
   -4.4807   -5.7744    0.0000 C   0  0  0
   -2.0110   -6.5741    0.0000 C   0  0  0
   -6.8563   -5.2687    0.0000 C   0  0  0
   -5.2451   -7.0680    0.0000 C   0  0  0
   -3.1400   -7.5619    0.0000 F   0  0  0
   -1.0232   -7.6795    0.0000 F   0  0  0
   -0.9056   -5.5627    0.0000 F   0  0  0
   -8.1735   -4.5042    0.0000 O   0  0  0
   -6.7152   -6.7505    0.0000 N   0  0  0
   -7.8442   -7.7384    0.0000 C   0  0  0
   -7.5384   -9.1966    0.0000 C   0  0  0
   -9.2790   -7.2679    0.0000 C   0  0  0
   -8.6674  -10.1845    0.0000 C   0  0  0
  -10.4080   -8.2558    0.0000 C   0  0  0
  -10.1022   -9.7141    0.0000 C   0  0  0
   -8.3617  -11.6428    0.0000 C   0  0  0
   -7.1150  -12.4543    0.0000 C   0  0  0
   -9.1966  -12.8894    0.0000 C   0  0  0
   -9.7964  -11.1724    0.0000 C   0  0  0
   -7.9500  -13.7009    0.0000 O   0  0  0
  -10.9254  -12.1603    0.0000 C   0  0  0
  -12.4072  -11.8310    0.0000 N   0  0  0
  -10.7843  -13.6421    0.0000 N   0  0  0
  -13.1717  -13.1246    0.0000 N   0  0  0
  -12.1720  -14.2419    0.0000 C   0  0  0
   -9.4907  -14.3830    0.0000 C   0  0  0
  1  2  1
  2  3  1
  2  4  1
  2  5  1
  4  6  1
  4  7  1
  4  8  1
  6  9  1
  9 10  1
 10 11  2
 10 12  1
 11 13  1
 12 14  2
 13 15  2
 13 16  1
 14 17  1
 15 18  1
 16 19  1
 16 20  1
 16 21  1
 17 22  2
 17 23  1
 23 24  1
 24 25  2
 24 26  1
 25 27  1
 26 28  2
 27 29  2
 27 30  1
 30 31  1
 30 32  1
 30 33  1
 31 34  1
 33 35  1
 35 36  2
 35 37  1
 36 38  1
 37 39  1
 37 40  1
  5  8  1
  7  9  1
 14 15  1
 18 23  1
 28 29  1
 32 34  1
 38 39  2
M  END
> <COMPOUND_NAMES>
Example 603 (Page No: 718)

> <Reference>
WO2019148005

> <IC50_range_nM>
<100

> <smiles>
Cn1cnnc1CC1(COC1)c1cccc(c1)N1Cc2c(cc(cc2C(F)(F)F)N2CC3(CCC3(F)F)C2)C1=O

$$$$
C28H26F5N5O2
  MOLSOFT 03092310482D

 40 46  0  0  0  0  0  0  0  0999 V2000
    0.0000   -0.0000    0.0000 F   0  0  0
   -1.1299   -0.9887    0.0000 C   0  0  0
   -1.4595    0.4943    0.0000 F   0  0  0
   -2.4835   -1.6596    0.0000 C   0  0  0
   -0.4590   -2.3187    0.0000 C   0  0  0
   -1.8126   -2.9896    0.0000 C   0  0  0
   -3.1661   -3.6605    0.0000 C   0  0  0
   -1.1417   -4.3196    0.0000 C   0  0  0
   -2.4952   -4.9905    0.0000 N   0  0  0
   -2.9660   -6.4029    0.0000 C   0  0  0
   -1.9774   -7.5092    0.0000 C   0  0  0
   -4.4490   -6.7089    0.0000 C   0  0  0
   -2.4481   -8.9216    0.0000 C   0  0  0
   -4.9198   -8.1213    0.0000 C   0  0  0
   -3.9312   -9.2276    0.0000 C   0  0  0
   -1.4595  -10.0280    0.0000 C   0  0  0
   -6.3087   -8.7215    0.0000 C   0  0  0
   -4.6962  -10.5223    0.0000 C   0  0  0
   -2.5894  -11.0167    0.0000 F   0  0  0
   -0.4708  -11.1344    0.0000 F   0  0  0
   -0.3531   -9.0158    0.0000 F   0  0  0
   -7.6269   -7.9565    0.0000 O   0  0  0
   -6.1675  -10.2045    0.0000 N   0  0  0
   -7.2974  -11.1932    0.0000 C   0  0  0
   -6.9913  -12.6527    0.0000 C   0  0  0
   -8.7333  -10.7224    0.0000 C   0  0  0
   -8.1213  -13.6414    0.0000 C   0  0  0
   -9.8632  -11.7111    0.0000 C   0  0  0
   -9.5572  -13.1706    0.0000 C   0  0  0
   -7.8152  -15.1008    0.0000 C   0  0  0
   -6.5676  -15.9130    0.0000 C   0  0  0
   -8.6509  -16.3485    0.0000 C   0  0  0
   -9.2512  -14.6300    0.0000 C   0  0  0
   -7.4033  -17.1606    0.0000 O   0  0  0
  -10.3811  -15.6187    0.0000 C   0  0  0
  -11.8641  -15.2892    0.0000 N   0  0  0
  -10.2399  -17.1017    0.0000 N   0  0  0
  -12.6292  -16.5839    0.0000 N   0  0  0
  -11.6287  -17.7020    0.0000 C   0  0  0
   -8.9452  -17.8432    0.0000 C   0  0  0
  1  2  1
  2  3  1
  2  4  1
  2  5  1
  4  6  1
  6  7  1
  6  8  1
  7  9  1
  9 10  1
 10 11  2
 10 12  1
 11 13  1
 12 14  2
 13 15  2
 13 16  1
 14 17  1
 15 18  1
 16 19  1
 16 20  1
 16 21  1
 17 22  2
 17 23  1
 23 24  1
 24 25  2
 24 26  1
 25 27  1
 26 28  2
 27 29  2
 27 30  1
 30 31  1
 30 32  1
 30 33  1
 31 34  1
 33 35  1
 35 36  2
 35 37  1
 36 38  1
 37 39  1
 37 40  1
  5  6  1
  8  9  1
 14 15  1
 18 23  1
 28 29  1
 32 34  1
 38 39  2
M  END
> <COMPOUND_NAMES>
Example 602 (Page No: 717)

> <Reference>
WO2019148005

> <IC50_range_nM>
<100

> <smiles>
Cn1cnnc1CC1(COC1)c1cccc(c1)N1Cc2c(cc(cc2C(F)(F)F)N2CC3(CC(C3)(F)F)C2)C1=O

$$$$
C26H26F3N5O3
  MOLSOFT 03092310482D

 37 42  0  0  0  0  0  0  0  0999 V2000
    0.0000   -0.0000    0.0000 F   0  0  0
    1.1021    1.0083    0.0000 C   0  0  0
    2.0987   -0.0938    0.0000 F   0  0  0
    2.2042    2.0283    0.0000 F   0  0  0
    0.0821    2.1339    0.0000 C   0  0  0
   -1.3952    1.8290    0.0000 C   0  0  0
    0.5276    3.5642    0.0000 C   0  0  0
   -2.4152    2.9546    0.0000 C   0  0  0
   -2.1573    0.5393    0.0000 C   0  0  0
   -0.4924    4.6898    0.0000 C   0  0  0
   -3.7987    2.3566    0.0000 C   0  0  0
   -1.9697    4.3850    0.0000 C   0  0  0
   -3.6346    0.8676    0.0000 N   0  0  0
   -0.0469    6.1202    0.0000 N   0  0  0
   -5.1119    3.1187    0.0000 O   0  0  0
   -4.7601   -0.1290    0.0000 C   0  0  0
   -1.0552    7.2457    0.0000 C   0  0  0
    1.4069    6.4485    0.0000 C   0  0  0
   -4.4553   -1.5828    0.0000 C   0  0  0
   -6.1905    0.3400    0.0000 C   0  0  0
   -0.6097    8.6761    0.0000 C   0  0  0
    1.8525    7.8789    0.0000 C   0  0  0
   -5.5809   -2.5677    0.0000 C   0  0  0
   -7.3161   -0.6566    0.0000 C   0  0  0
    0.8442    9.0044    0.0000 O   0  0  0
   -7.0230   -2.0987    0.0000 C   0  0  0
   -5.2760   -4.0215    0.0000 C   0  0  0
   -4.0332   -4.8305    0.0000 C   0  0  0
   -6.1085   -5.2643    0.0000 C   0  0  0
   -6.7064   -3.5525    0.0000 C   0  0  0
   -4.8657   -6.0733    0.0000 O   0  0  0
   -7.8320   -4.5491    0.0000 C   0  0  0
   -9.3093   -4.2208    0.0000 N   0  0  0
   -7.6913   -6.0264    0.0000 N   0  0  0
  -10.0714   -5.5105    0.0000 N   0  0  0
   -9.0748   -6.6243    0.0000 C   0  0  0
   -6.4016   -6.7650    0.0000 C   0  0  0
  1  2  1
  2  3  1
  2  4  1
  2  5  1
  5  6  2
  5  7  1
  6  8  1
  6  9  1
  7 10  2
  8 11  1
  8 12  2
  9 13  1
 10 14  1
 11 15  2
 13 16  1
 14 17  1
 14 18  1
 16 19  2
 16 20  1
 17 21  1
 18 22  1
 19 23  1
 20 24  2
 21 25  1
 23 26  2
 23 27  1
 27 28  1
 27 29  1
 27 30  1
 28 31  1
 30 32  1
 32 33  2
 32 34  1
 33 35  1
 34 36  1
 34 37  1
 10 12  1
 11 13  1
 22 25  1
 24 26  1
 29 31  1
 35 36  2
M  END
> <COMPOUND_NAMES>
Example 567 (Page No: 696)

> <Reference>
WO2019148005

> <IC50_range_nM>
<100

> <smiles>
Cn1cnnc1CC1(COC1)c1cccc(c1)N1Cc2c(cc(cc2C(F)(F)F)N2CCOCC2)C1=O

$$$$
C27H27F3N6O3
  MOLSOFT 03092310482D

 39 44  0  0  0  0  0  0  0  0999 V2000
    0.0000   -0.0000    0.0000 F   0  0  0
    1.1022    1.0084    0.0000 C   0  0  0
    2.0990   -0.0938    0.0000 F   0  0  0
    2.2045    2.0286    0.0000 F   0  0  0
    0.0821    2.1341    0.0000 C   0  0  0
   -1.3954    1.8293    0.0000 C   0  0  0
    0.5277    3.5647    0.0000 C   0  0  0
   -2.4156    2.9549    0.0000 C   0  0  0
   -2.1576    0.5394    0.0000 C   0  0  0
   -0.4925    4.6904    0.0000 C   0  0  0
   -3.7992    2.3569    0.0000 C   0  0  0
   -1.9700    4.3855    0.0000 C   0  0  0
   -3.6351    0.8677    0.0000 N   0  0  0
   -0.0469    6.1210    0.0000 N   0  0  0
   -5.1125    3.1191    0.0000 O   0  0  0
   -4.7608   -0.1290    0.0000 C   0  0  0
    1.4071    6.4493    0.0000 C   0  0  0
   -1.0553    7.2467    0.0000 C   0  0  0
   -4.4559   -1.5830    0.0000 C   0  0  0
   -6.1913    0.3401    0.0000 C   0  0  0
    2.4038    5.3471    0.0000 O   0  0  0
    1.8527    7.8799    0.0000 C   0  0  0
   -0.6098    8.6772    0.0000 C   0  0  0
   -5.5816   -2.5680    0.0000 C   0  0  0
   -7.3170   -0.6567    0.0000 C   0  0  0
    0.8325    9.0056    0.0000 N   0  0  0
   -7.0239   -2.0990    0.0000 C   0  0  0
   -5.2767   -4.0220    0.0000 C   0  0  0
    1.2781   10.4479    0.0000 C   0  0  0
   -4.0337   -4.8311    0.0000 C   0  0  0
   -6.1092   -5.2650    0.0000 C   0  0  0
   -6.7073   -3.5530    0.0000 C   0  0  0
   -4.8663   -6.0741    0.0000 O   0  0  0
   -7.8330   -4.5497    0.0000 C   0  0  0
   -9.3104   -4.2214    0.0000 N   0  0  0
   -7.6922   -6.0272    0.0000 N   0  0  0
  -10.0726   -5.5112    0.0000 N   0  0  0
   -9.0759   -6.6252    0.0000 C   0  0  0
   -6.4024   -6.7659    0.0000 C   0  0  0
  1  2  1
  2  3  1
  2  4  1
  2  5  1
  5  6  2
  5  7  1
  6  8  1
  6  9  1
  7 10  2
  8 11  1
  8 12  2
  9 13  1
 10 14  1
 11 15  2
 13 16  1
 14 17  1
 14 18  1
 16 19  2
 16 20  1
 17 21  2
 17 22  1
 18 23  1
 19 24  1
 20 25  2
 22 26  1
 24 27  2
 24 28  1
 26 29  1
 28 30  1
 28 31  1
 28 32  1
 30 33  1
 32 34  1
 34 35  2
 34 36  1
 35 37  1
 36 38  1
 36 39  1
 10 12  1
 11 13  1
 23 26  1
 25 27  1
 31 33  1
 37 38  2
M  END
> <COMPOUND_NAMES>
Example 391 (Page No: 566)

> <Reference>
WO2019148005

> <IC50_range_nM>
<100

> <smiles>
CN1CCN(C(C1)=O)c1cc2C(N(Cc2c(c1)C(F)(F)F)c1cccc(c1)C1(Cc2nncn2C)COC1)=O

$$$$
C28H29F3N6O2
  MOLSOFT 03092310482D

 39 45  0  0  0  0  0  0  0  0999 V2000
    0.0000   -0.0000    0.0000 F   0  0  0
    1.1026    1.0087    0.0000 C   0  0  0
    2.0996   -0.0938    0.0000 F   0  0  0
    2.2052    2.0292    0.0000 F   0  0  0
    0.0821    2.1348    0.0000 C   0  0  0
   -1.3958    1.8298    0.0000 C   0  0  0
    0.5278    3.5658    0.0000 C   0  0  0
   -2.4163    2.9559    0.0000 C   0  0  0
   -2.1582    0.5396    0.0000 C   0  0  0
   -0.4926    4.6918    0.0000 C   0  0  0
   -3.8004    2.3576    0.0000 C   0  0  0
   -1.9706    4.3869    0.0000 C   0  0  0
   -3.6362    0.8680    0.0000 N   0  0  0
   -0.0469    6.1228    0.0000 N   0  0  0
   -5.1141    3.1201    0.0000 O   0  0  0
   -4.7622   -0.1290    0.0000 C   0  0  0
    1.4075    6.4513    0.0000 C   0  0  0
   -1.0557    7.2489    0.0000 C   0  0  0
   -4.4572   -1.5835    0.0000 C   0  0  0
   -6.1932    0.3402    0.0000 C   0  0  0
    1.8533    7.8823    0.0000 C   0  0  0
   -0.6099    8.6799    0.0000 C   0  0  0
   -5.5833   -2.5688    0.0000 C   0  0  0
   -7.3193   -0.6569    0.0000 C   0  0  0
    0.8328    9.0083    0.0000 N   0  0  0
    2.9559    8.9027    0.0000 C   0  0  0
    3.2608    7.4365    0.0000 C   0  0  0
   -7.0260   -2.0996    0.0000 C   0  0  0
   -5.2783   -4.0232    0.0000 C   0  0  0
   -4.0350   -4.8326    0.0000 C   0  0  0
   -6.1111   -5.2666    0.0000 C   0  0  0
   -6.7093   -3.5541    0.0000 C   0  0  0
   -4.8678   -6.0759    0.0000 O   0  0  0
   -7.8354   -4.5511    0.0000 C   0  0  0
   -9.3133   -4.2226    0.0000 N   0  0  0
   -7.6946   -6.0290    0.0000 N   0  0  0
  -10.0757   -5.5129    0.0000 N   0  0  0
   -9.0787   -6.6272    0.0000 C   0  0  0
   -6.4043   -6.7680    0.0000 C   0  0  0
  1  2  1
  2  3  1
  2  4  1
  2  5  1
  5  6  2
  5  7  1
  6  8  1
  6  9  1
  7 10  2
  8 11  1
  8 12  2
  9 13  1
 10 14  1
 11 15  2
 13 16  1
 14 17  1
 14 18  1
 16 19  2
 16 20  1
 17 21  1
 18 22  1
 19 23  1
 20 24  2
 21 25  1
 21 26  1
 21 27  1
 23 28  2
 23 29  1
 29 30  1
 29 31  1
 29 32  1
 30 33  1
 32 34  1
 34 35  2
 34 36  1
 35 37  1
 36 38  1
 36 39  1
 10 12  1
 11 13  1
 22 25  1
 24 28  1
 26 27  1
 31 33  1
 37 38  2
M  END
> <COMPOUND_NAMES>
Example 582 (Page No: 706)

> <Reference>
WO2019148005

> <IC50_range_nM>
<100

> <smiles>
Cn1cnnc1CC1(COC1)c1cccc(c1)N1Cc2c(cc(cc2C(F)(F)F)N2CCNC3(CC3)C2)C1=O

$$$$
C29H31F3N6O2
  MOLSOFT 03092310482D

 40 46  0  0  0  0  0  0  0  0999 V2000
    0.0000   -0.0000    0.0000 F   0  0  0
    1.1024    1.0086    0.0000 C   0  0  0
    2.0993   -0.0938    0.0000 F   0  0  0
    2.2048    2.0289    0.0000 F   0  0  0
    0.0821    2.1345    0.0000 C   0  0  0
   -1.3956    1.8295    0.0000 C   0  0  0
    0.5278    3.5653    0.0000 C   0  0  0
   -2.4159    2.9554    0.0000 C   0  0  0
   -2.1579    0.5395    0.0000 C   0  0  0
   -0.4926    4.6911    0.0000 C   0  0  0
   -3.7998    2.3573    0.0000 C   0  0  0
   -1.9703    4.3862    0.0000 C   0  0  0
   -3.6356    0.8679    0.0000 N   0  0  0
   -0.0469    6.1219    0.0000 N   0  0  0
   -5.1134    3.1196    0.0000 O   0  0  0
   -4.7615   -0.1290    0.0000 C   0  0  0
    1.4073    6.4503    0.0000 C   0  0  0
   -1.0555    7.2478    0.0000 C   0  0  0
   -4.4566   -1.5833    0.0000 C   0  0  0
   -6.1923    0.3401    0.0000 C   0  0  0
    1.8530    7.8811    0.0000 C   0  0  0
   -0.6098    8.6786    0.0000 C   0  0  0
   -5.5825   -2.5684    0.0000 C   0  0  0
   -7.3182   -0.6568    0.0000 C   0  0  0
    0.8327    9.0070    0.0000 N   0  0  0
    2.9554    8.9015    0.0000 C   0  0  0
    3.2603    7.4355    0.0000 C   0  0  0
   -7.0250   -2.0993    0.0000 C   0  0  0
   -5.2775   -4.0227    0.0000 C   0  0  0
    1.2783   10.4495    0.0000 C   0  0  0
   -4.0344   -4.8319    0.0000 C   0  0  0
   -6.1102   -5.2658    0.0000 C   0  0  0
   -6.7083   -3.5535    0.0000 C   0  0  0
   -4.8671   -6.0750    0.0000 O   0  0  0
   -7.8342   -4.5504    0.0000 C   0  0  0
   -9.3119   -4.2220    0.0000 N   0  0  0
   -7.6935   -6.0281    0.0000 N   0  0  0
  -10.0742   -5.5121    0.0000 N   0  0  0
   -9.0774   -6.6262    0.0000 C   0  0  0
   -6.4034   -6.7670    0.0000 C   0  0  0
  1  2  1
  2  3  1
  2  4  1
  2  5  1
  5  6  2
  5  7  1
  6  8  1
  6  9  1
  7 10  2
  8 11  1
  8 12  2
  9 13  1
 10 14  1
 11 15  2
 13 16  1
 14 17  1
 14 18  1
 16 19  2
 16 20  1
 17 21  1
 18 22  1
 19 23  1
 20 24  2
 21 25  1
 21 26  1
 21 27  1
 23 28  2
 23 29  1
 25 30  1
 29 31  1
 29 32  1
 29 33  1
 31 34  1
 33 35  1
 35 36  2
 35 37  1
 36 38  1
 37 39  1
 37 40  1
 10 12  1
 11 13  1
 22 25  1
 24 28  1
 26 27  1
 32 34  1
 38 39  2
M  END
> <COMPOUND_NAMES>
Example 583 (Page No: 707)

> <Reference>
WO2019148005

> <IC50_range_nM>
<100

> <smiles>
CN1CCN(CC12CC2)c1cc2C(N(Cc2c(c1)C(F)(F)F)c1cccc(c1)C1(Cc2nncn2C)COC1)=O

$$$$
C26H25F4N5O2
  MOLSOFT 03092310482D

 37 42  0  0  0  0  0  0  0  0999 V2000
    0.0000   -0.0000    0.0000 F   0  0  0
    1.1029    1.0091    0.0000 C   0  0  0
    2.1003   -0.0939    0.0000 F   0  0  0
    2.2059    2.0299    0.0000 F   0  0  0
    0.0821    2.1355    0.0000 C   0  0  0
   -1.3963    1.8304    0.0000 C   0  0  0
    0.5280    3.5669    0.0000 C   0  0  0
   -2.4171    2.9568    0.0000 C   0  0  0
   -2.1589    0.5397    0.0000 C   0  0  0
   -0.4928    4.6933    0.0000 C   0  0  0
   -3.8016    2.3584    0.0000 C   0  0  0
   -1.9712    4.3883    0.0000 C   0  0  0
   -3.6373    0.8683    0.0000 N   0  0  0
   -0.0469    6.1248    0.0000 C   0  0  0
   -5.1157    3.1211    0.0000 O   0  0  0
   -4.7637   -0.1291    0.0000 C   0  0  0
    1.4080    6.4534    0.0000 N   0  0  0
   -4.4587   -1.5840    0.0000 C   0  0  0
   -6.1952    0.3403    0.0000 C   0  0  0
    2.2176    7.7206    0.0000 C   0  0  0
    2.6517    5.6438    0.0000 C   0  0  0
   -5.5851   -2.5696    0.0000 C   0  0  0
   -7.3216   -0.6571    0.0000 C   0  0  0
    3.4613    6.9110    0.0000 C   0  0  0
   -7.0283   -2.1003    0.0000 C   0  0  0
   -5.2800   -4.0245    0.0000 C   0  0  0
    4.9163    7.2395    0.0000 F   0  0  0
   -4.0363   -4.8341    0.0000 C   0  0  0
   -6.1131   -5.2683    0.0000 C   0  0  0
   -6.7115   -3.5552    0.0000 C   0  0  0
   -4.8693   -6.0779    0.0000 O   0  0  0
   -7.8379   -4.5525    0.0000 C   0  0  0
   -9.3163   -4.2240    0.0000 N   0  0  0
   -7.6971   -6.0310    0.0000 N   0  0  0
  -10.0790   -5.5147    0.0000 N   0  0  0
   -9.0816   -6.6294    0.0000 C   0  0  0
   -6.4064   -6.7702    0.0000 C   0  0  0
  1  2  1
  2  3  1
  2  4  1
  2  5  1
  5  6  2
  5  7  1
  6  8  1
  6  9  1
  7 10  2
  8 11  1
  8 12  2
  9 13  1
 10 14  1
 11 15  2
 13 16  1
 14 17  1
 16 18  2
 16 19  1
 17 20  1
 17 21  1
 18 22  1
 19 23  2
 20 24  1
 22 25  2
 22 26  1
 24 27  1
 26 28  1
 26 29  1
 26 30  1
 28 31  1
 30 32  1
 32 33  2
 32 34  1
 33 35  1
 34 36  1
 34 37  1
 10 12  1
 11 13  1
 21 24  1
 23 25  1
 29 31  1
 35 36  2
M  END
> <COMPOUND_NAMES>
Example 415 (Page No: 580)

> <Reference>
WO2019148005

> <IC50_range_nM>
<100

> <smiles>
Cn1cnnc1CC1(COC1)c1cccc(c1)N1Cc2c(cc(CN3CC(C3)F)cc2C(F)(F)F)C1=O

$$$$
C27H27F4N5O2
  MOLSOFT 03092310482D

 38 43  0  0  1  0  0  0  0  0999 V2000
    0.0000   -0.0000    0.0000 F   0  0  0
   -0.0118   -1.4873    0.0000 C   0  0  0
    1.4755   -1.4755    0.0000 F   0  0  0
   -1.5228   -1.4755    0.0000 F   0  0  0
   -0.0236   -2.9747    0.0000 C   0  0  0
   -1.3339   -3.7066    0.0000 C   0  0  0
    1.2631   -3.7066    0.0000 C   0  0  0
   -1.3457   -5.1939    0.0000 C   0  0  0
   -2.7740   -3.2344    0.0000 C   0  0  0
    1.2513   -5.1939    0.0000 C   0  0  0
   -2.7858   -5.6425    0.0000 C   0  0  0
   -0.0590   -5.9258    0.0000 C   0  0  0
   -3.6711   -4.4384    0.0000 N   0  0  0
    2.5379   -5.9258    0.0000 C   0  0  2
   -3.2580   -7.0590    0.0000 O   0  0  0
   -5.1821   -4.4266    0.0000 C   0  0  0
    3.8246   -5.1703    0.0000 N   0  0  0
    2.5261   -7.4131    0.0000 C   0  0  0
   -5.9376   -5.7133    0.0000 C   0  0  0
   -5.9376   -3.1163    0.0000 C   0  0  0
    4.2023   -3.7066    0.0000 C   0  0  0
    5.2647   -5.5480    0.0000 C   0  0  0
   -7.4485   -5.7015    0.0000 C   0  0  0
   -7.4485   -3.1045    0.0000 C   0  0  0
    5.6425   -4.0843    0.0000 C   0  0  0
   -8.2040   -4.3912    0.0000 C   0  0  0
   -8.2040   -6.9882    0.0000 C   0  0  0
    6.9291   -3.3288    0.0000 F   0  0  0
   -7.8263   -8.4283    0.0000 C   0  0  0
   -9.6677   -7.3659    0.0000 C   0  0  0
   -8.9595   -5.6779    0.0000 C   0  0  0
   -9.2900   -8.8060    0.0000 O   0  0  0
  -10.4704   -5.6661    0.0000 C   0  0  0
  -11.3676   -6.8701    0.0000 N   0  0  0
  -11.3676   -4.4384    0.0000 N   0  0  0
  -12.8077   -6.3979    0.0000 N   0  0  0
  -12.8077   -4.8870    0.0000 C   0  0  0
  -10.9190   -2.9983    0.0000 C   0  0  0
  1  2  1
  2  3  1
  2  4  1
  2  5  1
  5  6  2
  5  7  1
  6  8  1
  6  9  1
  7 10  2
  8 11  1
  8 12  2
  9 13  1
 14 10  1
 11 15  2
 13 16  1
 14 17  1  6  0
 14 18  1
 16 19  2
 16 20  1
 17 21  1
 17 22  1
 19 23  1
 20 24  2
 21 25  1
 23 26  2
 23 27  1
 25 28  1
 27 29  1
 27 30  1
 27 31  1
 29 32  1
 31 33  1
 33 34  2
 33 35  1
 34 36  1
 35 37  1
 35 38  1
 10 12  1
 11 13  1
 22 25  1
 24 26  1
 30 32  1
 36 37  2
M  END
> <COMPOUND_NAMES>
Example 668a (R) (Page No: 750)

> <Reference>
WO2019148005

> <IC50_range_nM>
<100

> <smiles>
C[C@H](c1cc2C(N(Cc2c(c1)C(F)(F)F)c1cccc(c1)C1(Cc2nncn2C)COC1)=O)N1CC(C1)F

$$$$
C27H27F4N5O2
  MOLSOFT 03092310482D

 38 43  0  0  1  0  0  0  0  0999 V2000
    0.0000   -0.0000    0.0000 F   0  0  0
   -0.0118   -1.4873    0.0000 C   0  0  0
    1.4755   -1.4755    0.0000 F   0  0  0
   -1.5228   -1.4755    0.0000 F   0  0  0
   -0.0236   -2.9747    0.0000 C   0  0  0
   -1.3339   -3.7066    0.0000 C   0  0  0
    1.2631   -3.7066    0.0000 C   0  0  0
   -1.3457   -5.1939    0.0000 C   0  0  0
   -2.7740   -3.2344    0.0000 C   0  0  0
    1.2513   -5.1939    0.0000 C   0  0  0
   -2.7858   -5.6425    0.0000 C   0  0  0
   -0.0590   -5.9258    0.0000 C   0  0  0
   -3.6711   -4.4384    0.0000 N   0  0  0
    2.5379   -5.9258    0.0000 C   0  0  1
   -3.2580   -7.0590    0.0000 O   0  0  0
   -5.1821   -4.4266    0.0000 C   0  0  0
    3.8246   -5.1703    0.0000 N   0  0  0
    2.5261   -7.4131    0.0000 C   0  0  0
   -5.9376   -5.7133    0.0000 C   0  0  0
   -5.9376   -3.1163    0.0000 C   0  0  0
    4.2023   -3.7066    0.0000 C   0  0  0
    5.2647   -5.5480    0.0000 C   0  0  0
   -7.4485   -5.7015    0.0000 C   0  0  0
   -7.4485   -3.1045    0.0000 C   0  0  0
    5.6425   -4.0843    0.0000 C   0  0  0
   -8.2040   -4.3912    0.0000 C   0  0  0
   -8.2040   -6.9882    0.0000 C   0  0  0
    6.9291   -3.3288    0.0000 F   0  0  0
   -7.8263   -8.4283    0.0000 C   0  0  0
   -9.6677   -7.3659    0.0000 C   0  0  0
   -8.9595   -5.6779    0.0000 C   0  0  0
   -9.2900   -8.8060    0.0000 O   0  0  0
  -10.4704   -5.6661    0.0000 C   0  0  0
  -11.3676   -6.8701    0.0000 N   0  0  0
  -11.3676   -4.4384    0.0000 N   0  0  0
  -12.8077   -6.3979    0.0000 N   0  0  0
  -12.8077   -4.8870    0.0000 C   0  0  0
  -10.9190   -2.9983    0.0000 C   0  0  0
  1  2  1
  2  3  1
  2  4  1
  2  5  1
  5  6  2
  5  7  1
  6  8  1
  6  9  1
  7 10  2
  8 11  1
  8 12  2
  9 13  1
 14 10  1
 11 15  2
 13 16  1
 14 17  1  1  0
 14 18  1
 16 19  2
 16 20  1
 17 21  1
 17 22  1
 19 23  1
 20 24  2
 21 25  1
 23 26  2
 23 27  1
 25 28  1
 27 29  1
 27 30  1
 27 31  1
 29 32  1
 31 33  1
 33 34  2
 33 35  1
 34 36  1
 35 37  1
 35 38  1
 10 12  1
 11 13  1
 22 25  1
 24 26  1
 30 32  1
 36 37  2
M  END
> <COMPOUND_NAMES>
Example 668b (S) (Page No: 750)

> <Reference>
WO2019148005

> <IC50_range_nM>
<100

> <smiles>
C[C@@H](c1cc2C(N(Cc2c(c1)C(F)(F)F)c1cccc(c1)C1(Cc2nncn2C)COC1)=O)N1CC(C1)F

$$$$
C27H27F4N5O2
  MOLSOFT 03092310482D

 38 43  0  0  0  0  0  0  0  0999 V2000
    0.0000   -0.0000    0.0000 F   0  0  0
   -1.1295   -0.9884    0.0000 C   0  0  0
   -2.4003   -0.1530    0.0000 C   0  0  0
   -1.9649   -2.2356    0.0000 C   0  0  0
    0.2824   -1.4355    0.0000 C   0  0  0
   -3.2357   -1.4002    0.0000 N   0  0  0
   -4.7182   -1.7061    0.0000 C   0  0  0
   -5.1889   -3.1180    0.0000 C   0  0  0
   -4.2005   -4.2240    0.0000 C   0  0  0
   -6.6714   -3.4239    0.0000 C   0  0  0
   -4.6711   -5.6360    0.0000 C   0  0  0
   -7.1420   -4.8359    0.0000 C   0  0  0
   -6.1537   -5.9419    0.0000 C   0  0  0
   -3.6828   -6.7420    0.0000 C   0  0  0
   -8.5304   -5.4359    0.0000 C   0  0  0
   -6.9185   -7.2362    0.0000 C   0  0  0
   -4.8123   -7.7303    0.0000 F   0  0  0
   -2.6944   -7.8480    0.0000 F   0  0  0
   -2.5768   -5.7301    0.0000 F   0  0  0
   -9.8482   -4.6711    0.0000 O   0  0  0
   -8.3892   -6.9185    0.0000 N   0  0  0
   -9.5188   -7.9068    0.0000 C   0  0  0
   -9.2129   -9.3658    0.0000 C   0  0  0
  -10.9542   -7.4362    0.0000 C   0  0  0
  -10.3424  -10.3542    0.0000 C   0  0  0
  -12.0838   -8.4245    0.0000 C   0  0  0
  -11.7779   -9.8835    0.0000 C   0  0  0
  -10.0365  -11.8132    0.0000 C   0  0  0
   -8.7893  -12.6250    0.0000 C   0  0  0
  -10.8719  -13.0604    0.0000 C   0  0  0
  -11.4720  -11.3425    0.0000 C   0  0  0
   -9.6247  -13.8722    0.0000 O   0  0  0
  -12.6015  -12.3309    0.0000 C   0  0  0
  -14.0840  -12.0014    0.0000 N   0  0  0
  -12.4603  -13.8134    0.0000 N   0  0  0
  -14.8488  -13.2957    0.0000 N   0  0  0
  -13.8487  -14.4135    0.0000 C   0  0  0
  -11.1660  -14.5547    0.0000 C   0  0  0
  1  2  1
  2  3  1
  2  4  1
  2  5  1
  3  6  1
  6  7  1
  7  8  1
  8  9  2
  8 10  1
  9 11  1
 10 12  2
 11 13  2
 11 14  1
 12 15  1
 13 16  1
 14 17  1
 14 18  1
 14 19  1
 15 20  2
 15 21  1
 21 22  1
 22 23  2
 22 24  1
 23 25  1
 24 26  2
 25 27  2
 25 28  1
 28 29  1
 28 30  1
 28 31  1
 29 32  1
 31 33  1
 33 34  2
 33 35  1
 34 36  1
 35 37  1
 35 38  1
  4  6  1
 12 13  1
 16 21  1
 26 27  1
 30 32  1
 36 37  2
M  END
> <COMPOUND_NAMES>
Example 424 (Page No: 584)

> <Reference>
WO2019148005

> <IC50_range_nM>
<100

> <smiles>
CC1(CN(Cc2cc3C(N(Cc3c(c2)C(F)(F)F)c2cccc(c2)C2(Cc3nncn3C)COC2)=O)C1)F

$$$$
C28H29F4N5O2
  MOLSOFT 03092310482D

 39 44  0  0  1  0  0  0  0  0999 V2000
    0.0000   -0.0000    0.0000 F   0  0  0
   -0.7528   -1.2822    0.0000 C   0  0  0
   -2.2115   -0.8822    0.0000 C   0  0  0
   -1.1528   -2.7173    0.0000 C   0  0  0
    0.7293   -1.2704    0.0000 C   0  0  0
   -2.6114   -2.3174    0.0000 N   0  0  0
   -3.9171   -3.0467    0.0000 C   0  0  2
   -5.2229   -2.2938    0.0000 C   0  0  0
   -3.9289   -4.5288    0.0000 C   0  0  0
   -5.2346   -0.7881    0.0000 C   0  0  0
   -6.5286   -3.0231    0.0000 C   0  0  0
   -6.5403   -0.0353    0.0000 C   0  0  0
   -7.8343   -2.2703    0.0000 C   0  0  0
   -7.8461   -0.7646    0.0000 C   0  0  0
   -6.5521    1.4704    0.0000 C   0  0  0
   -9.2694   -2.7173    0.0000 C   0  0  0
   -9.2812   -0.2941    0.0000 C   0  0  0
   -6.5639    2.9761    0.0000 F   0  0  0
   -5.0699    1.4822    0.0000 F   0  0  0
   -8.0578    1.4822    0.0000 F   0  0  0
   -9.7399   -4.1289    0.0000 O   0  0  0
  -10.1634   -1.4939    0.0000 N   0  0  0
  -11.6691   -1.4822    0.0000 C   0  0  0
  -12.4219   -2.7644    0.0000 C   0  0  0
  -12.4219   -0.1764    0.0000 C   0  0  0
  -13.9276   -2.7526    0.0000 C   0  0  0
  -13.9276   -0.1647    0.0000 C   0  0  0
  -14.6805   -1.4469    0.0000 C   0  0  0
  -14.6805   -4.0348    0.0000 C   0  0  0
  -14.3041   -5.4699    0.0000 C   0  0  0
  -16.1391   -4.4112    0.0000 C   0  0  0
  -15.4333   -2.7291    0.0000 C   0  0  0
  -15.7627   -5.8463    0.0000 O   0  0  0
  -16.9390   -2.7173    0.0000 C   0  0  0
  -17.8330   -3.9171    0.0000 N   0  0  0
  -17.8330   -1.4939    0.0000 N   0  0  0
  -19.2681   -3.4466    0.0000 N   0  0  0
  -19.2681   -1.9409    0.0000 C   0  0  0
  -17.3860   -0.0588    0.0000 C   0  0  0
  1  2  1
  2  3  1
  2  4  1
  2  5  1
  3  6  1
  7  6  1  1  0
  7  8  1
  7  9  1
  8 10  2
  8 11  1
 10 12  1
 11 13  2
 12 14  2
 12 15  1
 13 16  1
 14 17  1
 15 18  1
 15 19  1
 15 20  1
 16 21  2
 16 22  1
 22 23  1
 23 24  2
 23 25  1
 24 26  1
 25 27  2
 26 28  2
 26 29  1
 29 30  1
 29 31  1
 29 32  1
 30 33  1
 32 34  1
 34 35  2
 34 36  1
 35 37  1
 36 38  1
 36 39  1
  4  6  1
 13 14  1
 17 22  1
 27 28  1
 31 33  1
 37 38  2
M  END
> <COMPOUND_NAMES>
Example 543a (S) (Page No: 678)

> <Reference>
WO2019148005

> <IC50_range_nM>
<100

> <smiles>
C[C@@H](c1cc2C(N(Cc2c(c1)C(F)(F)F)c1cccc(c1)C1(Cc2nncn2C)COC1)=O)N1CC(C)(C1)F

$$$$
C28H29F4N5O2
  MOLSOFT 03092310482D

 39 44  0  0  1  0  0  0  0  0999 V2000
    0.0000   -0.0000    0.0000 F   0  0  0
   -0.7528   -1.2822    0.0000 C   0  0  0
   -2.2115   -0.8822    0.0000 C   0  0  0
   -1.1528   -2.7173    0.0000 C   0  0  0
    0.7293   -1.2704    0.0000 C   0  0  0
   -2.6114   -2.3174    0.0000 N   0  0  0
   -3.9171   -3.0467    0.0000 C   0  0  1
   -5.2229   -2.2938    0.0000 C   0  0  0
   -3.9289   -4.5288    0.0000 C   0  0  0
   -5.2346   -0.7881    0.0000 C   0  0  0
   -6.5286   -3.0231    0.0000 C   0  0  0
   -6.5403   -0.0353    0.0000 C   0  0  0
   -7.8343   -2.2703    0.0000 C   0  0  0
   -7.8461   -0.7646    0.0000 C   0  0  0
   -6.5521    1.4704    0.0000 C   0  0  0
   -9.2694   -2.7173    0.0000 C   0  0  0
   -9.2812   -0.2941    0.0000 C   0  0  0
   -6.5639    2.9761    0.0000 F   0  0  0
   -5.0699    1.4822    0.0000 F   0  0  0
   -8.0578    1.4822    0.0000 F   0  0  0
   -9.7399   -4.1289    0.0000 O   0  0  0
  -10.1634   -1.4939    0.0000 N   0  0  0
  -11.6691   -1.4822    0.0000 C   0  0  0
  -12.4219   -2.7644    0.0000 C   0  0  0
  -12.4219   -0.1764    0.0000 C   0  0  0
  -13.9276   -2.7526    0.0000 C   0  0  0
  -13.9276   -0.1647    0.0000 C   0  0  0
  -14.6805   -1.4469    0.0000 C   0  0  0
  -14.6805   -4.0348    0.0000 C   0  0  0
  -14.3041   -5.4699    0.0000 C   0  0  0
  -16.1391   -4.4112    0.0000 C   0  0  0
  -15.4333   -2.7291    0.0000 C   0  0  0
  -15.7627   -5.8463    0.0000 O   0  0  0
  -16.9390   -2.7173    0.0000 C   0  0  0
  -17.8330   -3.9171    0.0000 N   0  0  0
  -17.8330   -1.4939    0.0000 N   0  0  0
  -19.2681   -3.4466    0.0000 N   0  0  0
  -19.2681   -1.9409    0.0000 C   0  0  0
  -17.3860   -0.0588    0.0000 C   0  0  0
  1  2  1
  2  3  1
  2  4  1
  2  5  1
  3  6  1
  7  6  1  6  0
  7  8  1
  7  9  1
  8 10  2
  8 11  1
 10 12  1
 11 13  2
 12 14  2
 12 15  1
 13 16  1
 14 17  1
 15 18  1
 15 19  1
 15 20  1
 16 21  2
 16 22  1
 22 23  1
 23 24  2
 23 25  1
 24 26  1
 25 27  2
 26 28  2
 26 29  1
 29 30  1
 29 31  1
 29 32  1
 30 33  1
 32 34  1
 34 35  2
 34 36  1
 35 37  1
 36 38  1
 36 39  1
  4  6  1
 13 14  1
 17 22  1
 27 28  1
 31 33  1
 37 38  2
M  END
> <COMPOUND_NAMES>
Example 543b (R) (Page No: 678)

> <Reference>
WO2019148005

> <IC50_range_nM>
<100

> <smiles>
C[C@H](c1cc2C(N(Cc2c(c1)C(F)(F)F)c1cccc(c1)C1(Cc2nncn2C)COC1)=O)N1CC(C)(C1)F

$$$$
C28H29F4N5O2
  MOLSOFT 03092310482D

 39 44  0  0  1  0  0  0  0  0999 V2000
    0.0000   -0.0000    0.0000 F   0  0  0
    1.1034    1.0095    0.0000 C   0  0  0
    2.1012   -0.0939    0.0000 F   0  0  0
    2.2068    2.0308    0.0000 F   0  0  0
    0.0822    2.1364    0.0000 C   0  0  0
   -1.3969    1.8312    0.0000 C   0  0  0
    0.5282    3.5685    0.0000 C   0  0  0
   -2.4181    2.9581    0.0000 C   0  0  0
   -2.1599    0.5400    0.0000 C   0  0  0
   -0.4930    4.6954    0.0000 C   0  0  0
   -3.8033    2.3594    0.0000 C   0  0  0
   -1.9721    4.3902    0.0000 C   0  0  0
   -3.6389    0.8686    0.0000 N   0  0  0
   -0.0470    6.1275    0.0000 C   0  0  0
   -5.1180    3.1224    0.0000 O   0  0  0
   -4.7658   -0.1291    0.0000 C   0  0  0
    1.4086    6.4562    0.0000 N   0  0  0
   -4.4606   -1.5847    0.0000 C   0  0  0
   -6.1979    0.3404    0.0000 C   0  0  0
    2.6529    5.6462    0.0000 C   0  0  0
    2.2186    7.7239    0.0000 C   0  0  0
   -5.5875   -2.5707    0.0000 C   0  0  0
   -7.3248   -0.6574    0.0000 C   0  0  0
    3.4629    6.9140    0.0000 C   0  0  2
    2.1834    4.2376    0.0000 C   0  0  0
    3.6507    4.5428    0.0000 C   0  0  0
   -7.0314   -2.1012    0.0000 C   0  0  0
   -5.2823   -4.0263    0.0000 C   0  0  0
    4.9184    7.2427    0.0000 F   0  0  0
   -4.0380   -4.8363    0.0000 C   0  0  0
   -6.1158   -5.2706    0.0000 C   0  0  0
   -6.7144   -3.5568    0.0000 C   0  0  0
   -4.8715   -6.0805    0.0000 O   0  0  0
   -7.8413   -4.5545    0.0000 C   0  0  0
   -9.3204   -4.2259    0.0000 N   0  0  0
   -7.7005   -6.0336    0.0000 N   0  0  0
  -10.0834   -5.5171    0.0000 N   0  0  0
   -9.0856   -6.6323    0.0000 C   0  0  0
   -6.4092   -6.7731    0.0000 C   0  0  0
  1  2  1
  2  3  1
  2  4  1
  2  5  1
  5  6  2
  5  7  1
  6  8  1
  6  9  1
  7 10  2
  8 11  1
  8 12  2
  9 13  1
 10 14  1
 11 15  2
 13 16  1
 14 17  1
 16 18  2
 16 19  1
 17 20  1
 17 21  1
 18 22  1
 19 23  2
 24 20  1
 20 25  1
 20 26  1
 22 27  2
 22 28  1
 24 29  1  6  0
 28 30  1
 28 31  1
 28 32  1
 30 33  1
 32 34  1
 34 35  2
 34 36  1
 35 37  1
 36 38  1
 36 39  1
 10 12  1
 11 13  1
 24 21  1
 23 27  1
 31 33  1
 37 38  2
M  END
> <COMPOUND_NAMES>
Example 536 (Page No: 672)

> <Reference>
WO2019148005

> <IC50_range_nM>
<100

> <smiles>
CC1(C)[C@H](CN1Cc1cc2C(N(Cc2c(c1)C(F)(F)F)c1cccc(c1)C1(Cc2nncn2C)COC1)=O)F

$$$$
C27H27F4N5O2
  MOLSOFT 03092310482D

 38 43  0  0  1  0  0  0  0  0999 V2000
    0.0000   -0.0000    0.0000 F   0  0  0
    1.1043    1.0104    0.0000 C   0  0  0
    2.0912   -0.0940    0.0000 F   0  0  0
    2.2087    2.0207    0.0000 F   0  0  0
    0.0940    2.1382    0.0000 C   0  0  0
   -1.3863    1.8327    0.0000 C   0  0  0
    0.5404    3.5715    0.0000 C   0  0  0
   -2.3966    2.9606    0.0000 C   0  0  0
   -2.1499    0.5404    0.0000 C   0  0  0
   -0.4699    4.6993    0.0000 C   0  0  0
   -3.7829    2.3614    0.0000 C   0  0  0
   -1.9502    4.3938    0.0000 C   0  0  0
   -3.6302    0.8694    0.0000 N   0  0  0
   -0.0235    6.1326    0.0000 C   0  0  0
   -5.0987    3.1250    0.0000 O   0  0  0
   -4.7580   -0.1175    0.0000 C   0  0  0
    1.4333    6.4615    0.0000 N   0  0  0
   -4.4526   -1.5743    0.0000 C   0  0  0
   -6.1913    0.3524    0.0000 C   0  0  0
    2.5376    5.4747    0.0000 C   0  0  0
    2.0324    7.8478    0.0000 C   0  0  0
   -5.5804   -2.5611    0.0000 C   0  0  0
   -7.3192   -0.6344    0.0000 C   0  0  0
    3.8182    6.2383    0.0000 C   0  0  2
    3.5127    7.7069    0.0000 C   0  0  0
   -7.0137   -2.0912    0.0000 C   0  0  0
   -5.2750   -4.0179    0.0000 C   0  0  0
    5.1810    5.6392    0.0000 F   0  0  0
   -4.0297   -4.8285    0.0000 C   0  0  0
   -6.1091   -5.2632    0.0000 C   0  0  0
   -6.7083   -3.5480    0.0000 C   0  0  0
   -4.8638   -6.0738    0.0000 O   0  0  0
   -7.8361   -4.5348    0.0000 C   0  0  0
   -9.3164   -4.2059    0.0000 N   0  0  0
   -7.6951   -6.0151    0.0000 N   0  0  0
  -10.0800   -5.4982    0.0000 N   0  0  0
   -9.0814   -6.6143    0.0000 C   0  0  0
   -6.4028   -6.7552    0.0000 C   0  0  0
  1  2  1
  2  3  1
  2  4  1
  2  5  1
  5  6  2
  5  7  1
  6  8  1
  6  9  1
  7 10  2
  8 11  1
  8 12  2
  9 13  1
 10 14  1
 11 15  2
 13 16  1
 14 17  1
 16 18  2
 16 19  1
 17 20  1
 17 21  1
 18 22  1
 19 23  2
 24 20  1
 21 25  1
 22 26  2
 22 27  1
 24 28  1  6  0
 27 29  1
 27 30  1
 27 31  1
 29 32  1
 31 33  1
 33 34  2
 33 35  1
 34 36  1
 35 37  1
 35 38  1
 10 12  1
 11 13  1
 23 26  1
 24 25  1
 30 32  1
 36 37  2
M  END
> <COMPOUND_NAMES>
Example 410 (S) (Page No: 577)

> <Reference>
WO2019148005

> <IC50_range_nM>
<100

> <smiles>
Cn1cnnc1CC1(COC1)c1cccc(c1)N1Cc2c(cc(CN3CC[C@@H](C3)F)cc2C(F)(F)F)C1=O

$$$$
C28H29F4N5O2
  MOLSOFT 03092310482D

 39 44  0  0  1  0  0  0  0  0999 V2000
    0.0000   -0.0000    0.0000 F   0  0  0
   -0.0118   -1.4881    0.0000 C   0  0  0
    1.4763   -1.4763    0.0000 F   0  0  0
   -1.5235   -1.4763    0.0000 F   0  0  0
   -0.0236   -2.9762    0.0000 C   0  0  0
   -1.3346   -3.7085    0.0000 C   0  0  0
    1.2637   -3.7085    0.0000 C   0  0  0
   -1.3464   -5.1966    0.0000 C   0  0  0
   -2.7755   -3.2361    0.0000 C   0  0  0
    1.2519   -5.1966    0.0000 C   0  0  0
   -2.7873   -5.6454    0.0000 C   0  0  0
   -0.0591   -5.9289    0.0000 C   0  0  0
   -3.6731   -4.4407    0.0000 N   0  0  0
    2.5392   -5.9289    0.0000 C   0  0  1
   -3.2597   -7.0627    0.0000 O   0  0  0
   -5.1848   -4.4289    0.0000 C   0  0  0
    3.8266   -5.1730    0.0000 N   0  0  0
    2.5274   -7.4170    0.0000 C   0  0  0
   -5.9407   -5.7163    0.0000 C   0  0  0
   -5.9407   -3.1180    0.0000 C   0  0  0
    5.1848   -5.7753    0.0000 C   0  0  0
    3.9683   -3.6731    0.0000 C   0  0  0
   -7.4524   -5.7045    0.0000 C   0  0  0
   -7.4524   -3.1062    0.0000 C   0  0  0
    6.1769   -4.6533    0.0000 C   0  0  2
    5.4210   -3.3542    0.0000 C   0  0  0
   -8.2083   -4.3935    0.0000 C   0  0  0
   -8.2083   -6.9918    0.0000 C   0  0  0
    7.6532   -4.7950    0.0000 F   0  0  0
   -7.8303   -8.4327    0.0000 C   0  0  0
   -9.6728   -7.3697    0.0000 C   0  0  0
   -8.9641   -5.6808    0.0000 C   0  0  0
   -9.2948   -8.8106    0.0000 O   0  0  0
  -10.4759   -5.6690    0.0000 C   0  0  0
  -11.3735   -6.8737    0.0000 N   0  0  0
  -11.3735   -4.4407    0.0000 N   0  0  0
  -12.8143   -6.4013    0.0000 N   0  0  0
  -12.8143   -4.8895    0.0000 C   0  0  0
  -10.9247   -2.9999    0.0000 C   0  0  0
  1  2  1
  2  3  1
  2  4  1
  2  5  1
  5  6  2
  5  7  1
  6  8  1
  6  9  1
  7 10  2
  8 11  1
  8 12  2
  9 13  1
 14 10  1
 11 15  2
 13 16  1
 14 17  1  1  0
 14 18  1
 16 19  2
 16 20  1
 17 21  1
 17 22  1
 19 23  1
 20 24  2
 25 21  1
 22 26  1
 23 27  2
 23 28  1
 25 29  1  6  0
 28 30  1
 28 31  1
 28 32  1
 30 33  1
 32 34  1
 34 35  2
 34 36  1
 35 37  1
 36 38  1
 36 39  1
 10 12  1
 11 13  1
 24 27  1
 25 26  1
 31 33  1
 37 38  2
M  END
> <COMPOUND_NAMES>
Example 412 (Stereo) (Page No: 578)

> <Reference>
WO2019148005

> <IC50_range_nM>
<100

> <smiles>
C[C@@H](c1cc2C(N(Cc2c(c1)C(F)(F)F)c1cccc(c1)C1(Cc2nncn2C)COC1)=O)N1CC[C@@H](C1)F

$$$$
C28H29F4N5O2
  MOLSOFT 03092310482D

 39 44  0  0  1  0  0  0  0  0999 V2000
    0.0000   -0.0000    0.0000 F   0  0  0
   -0.0118   -1.4881    0.0000 C   0  0  0
    1.4763   -1.4763    0.0000 F   0  0  0
   -1.5235   -1.4763    0.0000 F   0  0  0
   -0.0236   -2.9762    0.0000 C   0  0  0
   -1.3346   -3.7085    0.0000 C   0  0  0
    1.2637   -3.7085    0.0000 C   0  0  0
   -1.3464   -5.1966    0.0000 C   0  0  0
   -2.7755   -3.2361    0.0000 C   0  0  0
    1.2519   -5.1966    0.0000 C   0  0  0
   -2.7873   -5.6454    0.0000 C   0  0  0
   -0.0591   -5.9289    0.0000 C   0  0  0
   -3.6731   -4.4407    0.0000 N   0  0  0
    2.5392   -5.9289    0.0000 C   0  0  2
   -3.2597   -7.0627    0.0000 O   0  0  0
   -5.1848   -4.4289    0.0000 C   0  0  0
    3.8266   -5.1730    0.0000 N   0  0  0
    2.5274   -7.4170    0.0000 C   0  0  0
   -5.9407   -5.7163    0.0000 C   0  0  0
   -5.9407   -3.1180    0.0000 C   0  0  0
    5.1848   -5.7753    0.0000 C   0  0  0
    3.9683   -3.6731    0.0000 C   0  0  0
   -7.4524   -5.7045    0.0000 C   0  0  0
   -7.4524   -3.1062    0.0000 C   0  0  0
    6.1769   -4.6533    0.0000 C   0  0  2
    5.4210   -3.3542    0.0000 C   0  0  0
   -8.2083   -4.3935    0.0000 C   0  0  0
   -8.2083   -6.9918    0.0000 C   0  0  0
    7.6532   -4.7950    0.0000 F   0  0  0
   -7.8303   -8.4327    0.0000 C   0  0  0
   -9.6728   -7.3697    0.0000 C   0  0  0
   -8.9641   -5.6808    0.0000 C   0  0  0
   -9.2948   -8.8106    0.0000 O   0  0  0
  -10.4759   -5.6690    0.0000 C   0  0  0
  -11.3735   -6.8737    0.0000 N   0  0  0
  -11.3735   -4.4407    0.0000 N   0  0  0
  -12.8143   -6.4013    0.0000 N   0  0  0
  -12.8143   -4.8895    0.0000 C   0  0  0
  -10.9247   -2.9999    0.0000 C   0  0  0
  1  2  1
  2  3  1
  2  4  1
  2  5  1
  5  6  2
  5  7  1
  6  8  1
  6  9  1
  7 10  2
  8 11  1
  8 12  2
  9 13  1
 14 10  1
 11 15  2
 13 16  1
 14 17  1  6  0
 14 18  1
 16 19  2
 16 20  1
 17 21  1
 17 22  1
 19 23  1
 20 24  2
 25 21  1
 22 26  1
 23 27  2
 23 28  1
 25 29  1  6  0
 28 30  1
 28 31  1
 28 32  1
 30 33  1
 32 34  1
 34 35  2
 34 36  1
 35 37  1
 36 38  1
 36 39  1
 10 12  1
 11 13  1
 24 27  1
 25 26  1
 31 33  1
 37 38  2
M  END
> <COMPOUND_NAMES>
Example 413 (Stereo) (Page No: 578)

> <Reference>
WO2019148005

> <IC50_range_nM>
<100

> <smiles>
C[C@H](c1cc2C(N(Cc2c(c1)C(F)(F)F)c1cccc(c1)C1(Cc2nncn2C)COC1)=O)N1CC[C@@H](C1)F

$$$$
C29H31F4N5O2
  MOLSOFT 03092310482D

 40 45  0  0  1  0  0  0  0  0999 V2000
    0.0000   -0.0000    0.0000 F   0  0  0
   -0.0118   -1.4873    0.0000 C   0  0  0
    1.4755   -1.4755    0.0000 F   0  0  0
   -1.5227   -1.4755    0.0000 F   0  0  0
   -0.0236   -2.9745    0.0000 C   0  0  0
   -1.3338   -3.7064    0.0000 C   0  0  0
    1.2630   -3.7064    0.0000 C   0  0  0
   -1.3456   -5.1936    0.0000 C   0  0  0
   -2.7739   -3.2342    0.0000 C   0  0  0
    1.2512   -5.1936    0.0000 C   0  0  0
   -2.7857   -5.6422    0.0000 C   0  0  0
   -0.0590   -5.9255    0.0000 C   0  0  0
   -3.6710   -4.4382    0.0000 N   0  0  0
    2.5378   -5.9255    0.0000 C   0  0  1
   -3.2578   -7.0586    0.0000 O   0  0  0
   -5.1818   -4.4264    0.0000 C   0  0  0
    2.5260   -7.4127    0.0000 N   0  0  0
    3.8244   -5.1700    0.0000 C   0  0  0
   -5.9373   -5.7130    0.0000 C   0  0  0
   -5.9373   -3.1162    0.0000 C   0  0  0
    1.2984   -8.2862    0.0000 C   0  0  0
    3.7300   -8.2862    0.0000 C   0  0  0
    3.8126   -3.6591    0.0000 C   0  0  0
   -7.4481   -5.7012    0.0000 C   0  0  0
   -7.4481   -3.1044    0.0000 C   0  0  0
    1.7469   -9.7026    0.0000 C   0  0  2
    3.2578   -9.7026    0.0000 C   0  0  0
   -8.2036   -4.3910    0.0000 C   0  0  0
   -8.2036   -6.9878    0.0000 C   0  0  0
    0.8499  -10.9066    0.0000 F   0  0  0
   -7.8259   -8.4278    0.0000 C   0  0  0
   -9.6672   -7.3655    0.0000 C   0  0  0
   -8.9590   -5.6776    0.0000 C   0  0  0
   -9.2895   -8.8056    0.0000 O   0  0  0
  -10.4699   -5.6658    0.0000 C   0  0  0
  -11.3670   -6.8698    0.0000 N   0  0  0
  -11.3670   -4.4382    0.0000 N   0  0  0
  -12.8070   -6.3976    0.0000 N   0  0  0
  -12.8070   -4.8867    0.0000 C   0  0  0
  -10.9184   -2.9981    0.0000 C   0  0  0
  1  2  1
  2  3  1
  2  4  1
  2  5  1
  5  6  2
  5  7  1
  6  8  1
  6  9  1
  7 10  2
  8 11  1
  8 12  2
  9 13  1
 14 10  1
 11 15  2
 13 16  1
 14 17  1  6  0
 14 18  1
 16 19  2
 16 20  1
 17 21  1
 17 22  1
 18 23  1
 19 24  1
 20 25  2
 26 21  1
 22 27  1
 24 28  2
 24 29  1
 26 30  1  6  0
 29 31  1
 29 32  1
 29 33  1
 31 34  1
 33 35  1
 35 36  2
 35 37  1
 36 38  1
 37 39  1
 37 40  1
 10 12  1
 11 13  1
 25 28  1
 26 27  1
 32 34  1
 38 39  2
M  END
> <COMPOUND_NAMES>
Example 545 (Stereo) (Page No: 680)

> <Reference>
WO2019148005

> <IC50_range_nM>
<100

> <smiles>
CC[C@@H](c1cc2C(N(Cc2c(c1)C(F)(F)F)c1cccc(c1)C1(Cc2nncn2C)COC1)=O)N1CC[C@@H](C1)F

$$$$
C29H31F4N5O2
  MOLSOFT 03092310482D

 40 45  0  0  1  0  0  0  0  0999 V2000
    0.0000   -0.0000    0.0000 F   0  0  0
   -0.0118   -1.4873    0.0000 C   0  0  0
    1.4755   -1.4755    0.0000 F   0  0  0
   -1.5227   -1.4755    0.0000 F   0  0  0
   -0.0236   -2.9745    0.0000 C   0  0  0
   -1.3338   -3.7064    0.0000 C   0  0  0
    1.2630   -3.7064    0.0000 C   0  0  0
   -1.3456   -5.1936    0.0000 C   0  0  0
   -2.7739   -3.2342    0.0000 C   0  0  0
    1.2512   -5.1936    0.0000 C   0  0  0
   -2.7857   -5.6422    0.0000 C   0  0  0
   -0.0590   -5.9255    0.0000 C   0  0  0
   -3.6710   -4.4382    0.0000 N   0  0  0
    2.5378   -5.9255    0.0000 C   0  0  2
   -3.2578   -7.0586    0.0000 O   0  0  0
   -5.1818   -4.4264    0.0000 C   0  0  0
    2.5260   -7.4127    0.0000 N   0  0  0
    3.8244   -5.1700    0.0000 C   0  0  0
   -5.9373   -5.7130    0.0000 C   0  0  0
   -5.9373   -3.1162    0.0000 C   0  0  0
    1.2984   -8.2862    0.0000 C   0  0  0
    3.7300   -8.2862    0.0000 C   0  0  0
    3.8126   -3.6591    0.0000 C   0  0  0
   -7.4481   -5.7012    0.0000 C   0  0  0
   -7.4481   -3.1044    0.0000 C   0  0  0
    1.7469   -9.7026    0.0000 C   0  0  2
    3.2578   -9.7026    0.0000 C   0  0  0
   -8.2036   -4.3910    0.0000 C   0  0  0
   -8.2036   -6.9878    0.0000 C   0  0  0
    0.8499  -10.9066    0.0000 F   0  0  0
   -7.8259   -8.4278    0.0000 C   0  0  0
   -9.6672   -7.3655    0.0000 C   0  0  0
   -8.9590   -5.6776    0.0000 C   0  0  0
   -9.2895   -8.8056    0.0000 O   0  0  0
  -10.4699   -5.6658    0.0000 C   0  0  0
  -11.3670   -6.8698    0.0000 N   0  0  0
  -11.3670   -4.4382    0.0000 N   0  0  0
  -12.8070   -6.3976    0.0000 N   0  0  0
  -12.8070   -4.8867    0.0000 C   0  0  0
  -10.9184   -2.9981    0.0000 C   0  0  0
  1  2  1
  2  3  1
  2  4  1
  2  5  1
  5  6  2
  5  7  1
  6  8  1
  6  9  1
  7 10  2
  8 11  1
  8 12  2
  9 13  1
 14 10  1
 11 15  2
 13 16  1
 14 17  1  1  0
 14 18  1
 16 19  2
 16 20  1
 17 21  1
 17 22  1
 18 23  1
 19 24  1
 20 25  2
 26 21  1
 22 27  1
 24 28  2
 24 29  1
 26 30  1  6  0
 29 31  1
 29 32  1
 29 33  1
 31 34  1
 33 35  1
 35 36  2
 35 37  1
 36 38  1
 37 39  1
 37 40  1
 10 12  1
 11 13  1
 25 28  1
 26 27  1
 32 34  1
 38 39  2
M  END
> <COMPOUND_NAMES>
Example 546 (Stereo) (Page No: 680)

> <Reference>
WO2019148005

> <IC50_range_nM>
<100

> <smiles>
CC[C@H](c1cc2C(N(Cc2c(c1)C(F)(F)F)c1cccc(c1)C1(Cc2nncn2C)COC1)=O)N1CC[C@@H](C1)F

$$$$
C27H26F5N5O2
  MOLSOFT 03092310482D

 39 44  0  0  0  0  0  0  0  0999 V2000
    0.0000   -0.0000    0.0000 F   0  0  0
    1.1044    1.0104    0.0000 C   0  0  0
    2.0912   -0.0940    0.0000 F   0  0  0
    2.2087    2.0207    0.0000 F   0  0  0
    0.0940    2.1382    0.0000 C   0  0  0
   -1.3863    1.8328    0.0000 C   0  0  0
    0.5404    3.5715    0.0000 C   0  0  0
   -2.3967    2.9606    0.0000 C   0  0  0
   -2.1500    0.5404    0.0000 C   0  0  0
   -0.4699    4.6994    0.0000 C   0  0  0
   -3.7830    2.3614    0.0000 C   0  0  0
   -1.9503    4.3939    0.0000 C   0  0  0
   -3.6303    0.8694    0.0000 N   0  0  0
   -0.0235    6.1327    0.0000 C   0  0  0
   -5.0989    3.1251    0.0000 O   0  0  0
   -4.7581   -0.1175    0.0000 C   0  0  0
    1.4333    6.4617    0.0000 N   0  0  0
   -4.4527   -1.5743    0.0000 C   0  0  0
   -6.1915    0.3525    0.0000 C   0  0  0
    2.0325    7.8480    0.0000 C   0  0  0
    2.5377    5.4748    0.0000 C   0  0  0
   -5.5805   -2.5612    0.0000 C   0  0  0
   -7.3193   -0.6344    0.0000 C   0  0  0
    3.5128    7.7070    0.0000 C   0  0  1
    3.8183    6.2385    0.0000 C   0  0  2
   -7.0139   -2.0912    0.0000 C   0  0  0
   -5.2751   -4.0180    0.0000 C   0  0  0
    4.4997    8.8349    0.0000 F   0  0  0
    5.1811    5.6393    0.0000 F   0  0  0
   -4.0297   -4.8286    0.0000 C   0  0  0
   -6.1092   -5.2633    0.0000 C   0  0  0
   -6.7084   -3.5480    0.0000 C   0  0  0
   -4.8639   -6.0740    0.0000 O   0  0  0
   -7.8363   -4.5349    0.0000 C   0  0  0
   -9.3166   -4.2060    0.0000 N   0  0  0
   -7.6953   -6.0152    0.0000 N   0  0  0
  -10.0802   -5.4983    0.0000 N   0  0  0
   -9.0816   -6.6144    0.0000 C   0  0  0
   -6.4029   -6.7554    0.0000 C   0  0  0
  1  2  1
  2  3  1
  2  4  1
  2  5  1
  5  6  2
  5  7  1
  6  8  1
  6  9  1
  7 10  2
  8 11  1
  8 12  2
  9 13  1
 10 14  1
 11 15  2
 13 16  1
 14 17  1
 16 18  2
 16 19  1
 17 20  1
 17 21  1
 18 22  1
 19 23  2
 24 20  1
 25 21  1
 22 26  2
 22 27  1
 24 28  1  6  0
 25 29  1  6  0
 27 30  1
 27 31  1
 27 32  1
 30 33  1
 32 34  1
 34 35  2
 34 36  1
 35 37  1
 36 38  1
 36 39  1
 10 12  1
 11 13  1
 23 26  1
 24 25  1
 31 33  1
 37 38  2
M  END
> <COMPOUND_NAMES>
Example 414 (cis) (Page No: 580)

> <Reference>
WO2019148005

> <IC50_range_nM>
<100

> <smiles>
Cn1cnnc1CC1(COC1)c1cccc(c1)N1Cc2c(cc(CN3C[C@@H]([C@@H](C3)F)F)cc2C(F)(F)F)C1=O

$$$$
C28H29F4N5O2
  MOLSOFT 03092310482D

 39 44  0  0  0  0  0  0  0  0999 V2000
    0.0000   -0.0000    0.0000 F   0  0  0
   -1.5055   -0.1411    0.0000 C   0  0  3
   -2.8111   -0.8821    0.0000 C   0  0  0
   -1.8349    1.3409    0.0000 C   0  0  0
   -0.6351   -1.3409    0.0000 C   0  0  0
   -3.9402    0.1294    0.0000 N   0  0  0
   -3.3404    1.5055    0.0000 C   0  0  0
   -5.4223   -0.1764    0.0000 C   0  0  0
   -5.8927   -1.5879    0.0000 C   0  0  0
   -4.9047   -2.6935    0.0000 C   0  0  0
   -7.3747   -1.8937    0.0000 C   0  0  0
   -5.3752   -4.1049    0.0000 C   0  0  0
   -7.8452   -3.3051    0.0000 C   0  0  0
   -6.8572   -4.4107    0.0000 C   0  0  0
   -4.3872   -5.2105    0.0000 C   0  0  0
   -9.2331   -3.9050    0.0000 C   0  0  0
   -7.6217   -5.7045    0.0000 C   0  0  0
   -5.5163   -6.1985    0.0000 F   0  0  0
   -3.3992   -6.3162    0.0000 F   0  0  0
   -3.2816   -4.1990    0.0000 F   0  0  0
  -10.5505   -3.1404    0.0000 O   0  0  0
   -9.0920   -5.3870    0.0000 N   0  0  0
  -10.2211   -6.3750    0.0000 C   0  0  0
   -9.9153   -7.8335    0.0000 C   0  0  0
  -11.6561   -5.9045    0.0000 C   0  0  0
  -11.0445   -8.8215    0.0000 C   0  0  0
  -12.7852   -6.8925    0.0000 C   0  0  0
  -12.4794   -8.3510    0.0000 C   0  0  0
  -10.7386  -10.2799    0.0000 C   0  0  0
   -9.4919  -11.0915    0.0000 C   0  0  0
  -11.5737  -11.5267    0.0000 C   0  0  0
  -12.1736   -9.8095    0.0000 C   0  0  0
  -10.3270  -12.3383    0.0000 O   0  0  0
  -13.3028  -10.7975    0.0000 C   0  0  0
  -14.7848  -10.4681    0.0000 N   0  0  0
  -13.1616  -12.2795    0.0000 N   0  0  0
  -15.5493  -11.7619    0.0000 N   0  0  0
  -14.5495  -12.8793    0.0000 C   0  0  0
  -11.8678  -13.0205    0.0000 C   0  0  0
  2  1  1
  2  3  1
  2  4  1
  2  5  1
  3  6  1
  4  7  1
  6  8  1
  8  9  1
  9 10  2
  9 11  1
 10 12  1
 11 13  2
 12 14  2
 12 15  1
 13 16  1
 14 17  1
 15 18  1
 15 19  1
 15 20  1
 16 21  2
 16 22  1
 22 23  1
 23 24  2
 23 25  1
 24 26  1
 25 27  2
 26 28  2
 26 29  1
 29 30  1
 29 31  1
 29 32  1
 30 33  1
 32 34  1
 34 35  2
 34 36  1
 35 37  1
 36 38  1
 36 39  1
  6  7  1
 13 14  1
 17 22  1
 27 28  1
 31 33  1
 37 38  2
M  END
> <COMPOUND_NAMES>
Example 435 (+/-) (Page No: 590)

> <Reference>
WO2019148005

> <IC50_range_nM>
<100

> <smiles>
CC1(CCN(Cc2cc3C(N(Cc3c(c2)C(F)(F)F)c2cccc(c2)C2(Cc3nncn3C)COC2)=O)C1)F

$$$$
C27H26F5N5O2
  MOLSOFT 03092310482D

 39 44  0  0  0  0  0  0  0  0999 V2000
    0.0000   -0.0000    0.0000 F   0  0  0
   -0.8937    1.2230    0.0000 C   0  0  0
    0.5880    1.3877    0.0000 F   0  0  0
   -2.1991    0.4822    0.0000 C   0  0  0
   -1.2230    2.7048    0.0000 C   0  0  0
   -3.3280    1.4935    0.0000 N   0  0  0
   -2.7283    2.8694    0.0000 C   0  0  0
   -4.8098    1.1877    0.0000 C   0  0  0
   -5.2802   -0.2234    0.0000 C   0  0  0
   -4.2923   -1.3289    0.0000 C   0  0  0
   -6.7619   -0.5292    0.0000 C   0  0  0
   -4.7627   -2.7400    0.0000 C   0  0  0
   -7.2323   -1.9404    0.0000 C   0  0  0
   -6.2445   -3.0458    0.0000 C   0  0  0
   -3.7749   -3.8455    0.0000 C   0  0  0
   -8.6200   -2.5401    0.0000 C   0  0  0
   -7.0089   -4.3394    0.0000 C   0  0  0
   -4.9038   -4.8333    0.0000 F   0  0  0
   -2.7871   -4.9509    0.0000 F   0  0  0
   -2.6695   -2.8341    0.0000 F   0  0  0
   -9.9371   -1.7757    0.0000 O   0  0  0
   -8.4788   -4.0219    0.0000 N   0  0  0
   -9.6078   -5.0097    0.0000 C   0  0  0
   -9.3020   -6.4679    0.0000 C   0  0  0
  -11.0425   -4.5393    0.0000 C   0  0  0
  -10.4310   -7.4557    0.0000 C   0  0  0
  -12.1714   -5.5271    0.0000 C   0  0  0
  -11.8657   -6.9853    0.0000 C   0  0  0
  -10.1252   -8.9139    0.0000 C   0  0  0
   -8.8787   -9.7254    0.0000 C   0  0  0
  -10.9602  -10.1605    0.0000 C   0  0  0
  -11.5599   -8.4436    0.0000 C   0  0  0
   -9.7136  -10.9719    0.0000 O   0  0  0
  -12.6889   -9.4314    0.0000 C   0  0  0
  -14.1706   -9.1021    0.0000 N   0  0  0
  -12.5477  -10.9131    0.0000 N   0  0  0
  -14.9350  -10.3957    0.0000 N   0  0  0
  -13.9354  -11.5129    0.0000 C   0  0  0
  -11.2542  -11.6540    0.0000 C   0  0  0
  1  2  1
  2  3  1
  2  4  1
  2  5  1
  4  6  1
  5  7  1
  6  8  1
  8  9  1
  9 10  2
  9 11  1
 10 12  1
 11 13  2
 12 14  2
 12 15  1
 13 16  1
 14 17  1
 15 18  1
 15 19  1
 15 20  1
 16 21  2
 16 22  1
 22 23  1
 23 24  2
 23 25  1
 24 26  1
 25 27  2
 26 28  2
 26 29  1
 29 30  1
 29 31  1
 29 32  1
 30 33  1
 32 34  1
 34 35  2
 34 36  1
 35 37  1
 36 38  1
 36 39  1
  6  7  1
 13 14  1
 17 22  1
 27 28  1
 31 33  1
 37 38  2
M  END
> <COMPOUND_NAMES>
Example 411 (Page No: 577)

> <Reference>
WO2019148005

> <IC50_range_nM>
<100

> <smiles>
Cn1cnnc1CC1(COC1)c1cccc(c1)N1Cc2c(cc(CN3CCC(C3)(F)F)cc2C(F)(F)F)C1=O

$$$$
C28H28F5N5O2
  MOLSOFT 03092310482D

 40 45  0  0  1  0  0  0  0  0999 V2000
    0.0000   -0.0000    0.0000 F   0  0  0
   -1.2228    0.8936    0.0000 C   0  0  0
    0.1293    1.5168    0.0000 F   0  0  0
   -2.2340   -0.1999    0.0000 C   0  0  0
   -1.9753    2.1987    0.0000 C   0  0  0
   -3.6097    0.4233    0.0000 N   0  0  0
   -3.4451    1.9048    0.0000 C   0  0  0
   -4.9148   -0.3057    0.0000 C   0  0  1
   -6.2200    0.4468    0.0000 C   0  0  0
   -4.9266   -1.7872    0.0000 C   0  0  0
   -6.2317    1.9518    0.0000 C   0  0  0
   -7.5251   -0.2822    0.0000 C   0  0  0
   -7.5369    2.7043    0.0000 C   0  0  0
   -8.8302    0.4703    0.0000 C   0  0  0
   -8.8420    1.9753    0.0000 C   0  0  0
   -7.5486    4.2094    0.0000 C   0  0  0
  -10.2647    0.0235    0.0000 C   0  0  0
  -10.2765    2.4457    0.0000 C   0  0  0
   -7.5604    5.7144    0.0000 F   0  0  0
   -6.0671    4.2211    0.0000 F   0  0  0
   -9.0536    4.2211    0.0000 F   0  0  0
  -10.7350   -1.3874    0.0000 O   0  0  0
  -11.1583    1.2463    0.0000 N   0  0  0
  -12.6633    1.2581    0.0000 C   0  0  0
  -13.4158   -0.0235    0.0000 C   0  0  0
  -13.4158    2.5632    0.0000 C   0  0  0
  -14.9209   -0.0118    0.0000 C   0  0  0
  -14.9209    2.5750    0.0000 C   0  0  0
  -15.6734    1.2934    0.0000 C   0  0  0
  -15.6734   -1.2934    0.0000 C   0  0  0
  -15.2971   -2.7278    0.0000 C   0  0  0
  -17.1314   -1.6696    0.0000 C   0  0  0
  -16.4259    0.0118    0.0000 C   0  0  0
  -16.7551   -3.1041    0.0000 O   0  0  0
  -17.9309    0.0235    0.0000 C   0  0  0
  -18.8245   -1.1758    0.0000 N   0  0  0
  -18.8245    1.2463    0.0000 N   0  0  0
  -20.2590   -0.7055    0.0000 N   0  0  0
  -20.2590    0.7995    0.0000 C   0  0  0
  -18.3777    2.6808    0.0000 C   0  0  0
  1  2  1
  2  3  1
  2  4  1
  2  5  1
  4  6  1
  5  7  1
  8  6  1  6  0
  8  9  1
  8 10  1
  9 11  2
  9 12  1
 11 13  1
 12 14  2
 13 15  2
 13 16  1
 14 17  1
 15 18  1
 16 19  1
 16 20  1
 16 21  1
 17 22  2
 17 23  1
 23 24  1
 24 25  2
 24 26  1
 25 27  1
 26 28  2
 27 29  2
 27 30  1
 30 31  1
 30 32  1
 30 33  1
 31 34  1
 33 35  1
 35 36  2
 35 37  1
 36 38  1
 37 39  1
 37 40  1
  6  7  1
 14 15  1
 18 23  1
 28 29  1
 32 34  1
 38 39  2
M  END
> <COMPOUND_NAMES>
Example 419 (R) (Page No: 582)

> <Reference>
WO2019148005

> <IC50_range_nM>
<100

> <smiles>
C[C@H](c1cc2C(N(Cc2c(c1)C(F)(F)F)c1cccc(c1)C1(Cc2nncn2C)COC1)=O)N1CCC(C1)(F)F

$$$$
C28H28F5N5O2
  MOLSOFT 03092310482D

 40 45  0  0  1  0  0  0  0  0999 V2000
    0.0000   -0.0000    0.0000 F   0  0  0
   -1.2228    0.8936    0.0000 C   0  0  0
    0.1293    1.5168    0.0000 F   0  0  0
   -2.2340   -0.1999    0.0000 C   0  0  0
   -1.9753    2.1987    0.0000 C   0  0  0
   -3.6097    0.4233    0.0000 N   0  0  0
   -3.4451    1.9048    0.0000 C   0  0  0
   -4.9148   -0.3057    0.0000 C   0  0  2
   -6.2200    0.4468    0.0000 C   0  0  0
   -4.9266   -1.7872    0.0000 C   0  0  0
   -6.2317    1.9518    0.0000 C   0  0  0
   -7.5251   -0.2822    0.0000 C   0  0  0
   -7.5369    2.7043    0.0000 C   0  0  0
   -8.8302    0.4703    0.0000 C   0  0  0
   -8.8420    1.9753    0.0000 C   0  0  0
   -7.5486    4.2094    0.0000 C   0  0  0
  -10.2647    0.0235    0.0000 C   0  0  0
  -10.2765    2.4457    0.0000 C   0  0  0
   -7.5604    5.7144    0.0000 F   0  0  0
   -6.0671    4.2211    0.0000 F   0  0  0
   -9.0536    4.2211    0.0000 F   0  0  0
  -10.7350   -1.3874    0.0000 O   0  0  0
  -11.1583    1.2463    0.0000 N   0  0  0
  -12.6633    1.2581    0.0000 C   0  0  0
  -13.4158   -0.0235    0.0000 C   0  0  0
  -13.4158    2.5632    0.0000 C   0  0  0
  -14.9209   -0.0118    0.0000 C   0  0  0
  -14.9209    2.5750    0.0000 C   0  0  0
  -15.6734    1.2934    0.0000 C   0  0  0
  -15.6734   -1.2934    0.0000 C   0  0  0
  -15.2971   -2.7278    0.0000 C   0  0  0
  -17.1314   -1.6696    0.0000 C   0  0  0
  -16.4259    0.0118    0.0000 C   0  0  0
  -16.7551   -3.1041    0.0000 O   0  0  0
  -17.9309    0.0235    0.0000 C   0  0  0
  -18.8245   -1.1758    0.0000 N   0  0  0
  -18.8245    1.2463    0.0000 N   0  0  0
  -20.2590   -0.7055    0.0000 N   0  0  0
  -20.2590    0.7995    0.0000 C   0  0  0
  -18.3777    2.6808    0.0000 C   0  0  0
  1  2  1
  2  3  1
  2  4  1
  2  5  1
  4  6  1
  5  7  1
  8  6  1  1  0
  8  9  1
  8 10  1
  9 11  2
  9 12  1
 11 13  1
 12 14  2
 13 15  2
 13 16  1
 14 17  1
 15 18  1
 16 19  1
 16 20  1
 16 21  1
 17 22  2
 17 23  1
 23 24  1
 24 25  2
 24 26  1
 25 27  1
 26 28  2
 27 29  2
 27 30  1
 30 31  1
 30 32  1
 30 33  1
 31 34  1
 33 35  1
 35 36  2
 35 37  1
 36 38  1
 37 39  1
 37 40  1
  6  7  1
 14 15  1
 18 23  1
 28 29  1
 32 34  1
 38 39  2
M  END
> <COMPOUND_NAMES>
Example 420 (S) (Page No: 582)

> <Reference>
WO2019148005

> <IC50_range_nM>
<100

> <smiles>
C[C@@H](c1cc2C(N(Cc2c(c1)C(F)(F)F)c1cccc(c1)C1(Cc2nncn2C)COC1)=O)N1CCC(C1)(F)F

$$$$
C28H27F6N5O2
  MOLSOFT 03092310482D

 41 46  0  0  0  0  0  0  0  0999 V2000
    0.0000   -0.0000    0.0000 F   0  0  0
    1.1038    1.0098    0.0000 C   0  0  0
    2.0901   -0.0939    0.0000 F   0  0  0
    2.2075    2.0197    0.0000 F   0  0  0
    0.0939    2.1371    0.0000 C   0  0  0
   -1.3856    1.8318    0.0000 C   0  0  0
    0.5401    3.5697    0.0000 C   0  0  0
   -2.3954    2.9591    0.0000 C   0  0  0
   -2.1488    0.5401    0.0000 C   0  0  0
   -0.4697    4.6969    0.0000 C   0  0  0
   -3.7810    2.3602    0.0000 C   0  0  0
   -1.9492    4.3916    0.0000 C   0  0  0
   -3.6284    0.8689    0.0000 N   0  0  0
   -0.0235    6.1295    0.0000 C   0  0  3
   -5.0961    3.1234    0.0000 O   0  0  0
   -4.7556   -0.1174    0.0000 C   0  0  0
    1.4326    6.4583    0.0000 N   0  0  0
   -1.0333    7.2567    0.0000 C   0  0  0
   -4.4503   -1.5735    0.0000 C   0  0  0
   -6.1882    0.3523    0.0000 C   0  0  0
    2.0314    7.8438    0.0000 C   0  0  0
    2.5363    5.4719    0.0000 C   0  0  0
    0.0705    8.2666    0.0000 F   0  0  0
   -2.0432    8.3840    0.0000 F   0  0  0
   -2.1606    6.2704    0.0000 F   0  0  0
   -5.5776   -2.5598    0.0000 C   0  0  0
   -7.3154   -0.6341    0.0000 C   0  0  0
    3.5109    7.7029    0.0000 C   0  0  0
    3.8162    6.2352    0.0000 C   0  0  0
   -7.0101   -2.0901    0.0000 C   0  0  0
   -5.2723   -4.0159    0.0000 C   0  0  0
   -4.0276   -4.8261    0.0000 C   0  0  0
   -6.1060   -5.2605    0.0000 C   0  0  0
   -6.7048   -3.5462    0.0000 C   0  0  0
   -4.8613   -6.0708    0.0000 O   0  0  0
   -7.8321   -4.5325    0.0000 C   0  0  0
   -9.3116   -4.2037    0.0000 N   0  0  0
   -7.6912   -6.0120    0.0000 N   0  0  0
  -10.0749   -5.4954    0.0000 N   0  0  0
   -9.0768   -6.6109    0.0000 C   0  0  0
   -6.3995   -6.7518    0.0000 C   0  0  0
  1  2  1
  2  3  1
  2  4  1
  2  5  1
  5  6  2
  5  7  1
  6  8  1
  6  9  1
  7 10  2
  8 11  1
  8 12  2
  9 13  1
 14 10  1
 11 15  2
 13 16  1
 14 17  1
 14 18  1
 16 19  2
 16 20  1
 17 21  1
 17 22  1
 18 23  1
 18 24  1
 18 25  1
 19 26  1
 20 27  2
 21 28  1
 22 29  1
 26 30  2
 26 31  1
 31 32  1
 31 33  1
 31 34  1
 32 35  1
 34 36  1
 36 37  2
 36 38  1
 37 39  1
 38 40  1
 38 41  1
 10 12  1
 11 13  1
 27 30  1
 28 29  1
 33 35  1
 39 40  2
M  END
> <COMPOUND_NAMES>
Example 581 (+/-) (Page No: 705)

> <Reference>
WO2019148005

> <IC50_range_nM>
<100

> <smiles>
Cn1cnnc1CC1(COC1)c1cccc(c1)N1Cc2c(cc(cc2C(F)(F)F)C(C(F)(F)F)N2CCCC2)C1=O

$$$$
C28H29F4N5O2
  MOLSOFT 03092310482D

 39 44  0  0  1  0  0  0  0  0999 V2000
    0.0000   -0.0000    0.0000 F   0  0  0
    1.1033    1.0094    0.0000 C   0  0  0
    2.1010   -0.0939    0.0000 F   0  0  0
    2.2067    2.0306    0.0000 F   0  0  0
    0.0822    2.1363    0.0000 C   0  0  0
   -1.3968    1.8311    0.0000 C   0  0  0
    0.5282    3.5683    0.0000 C   0  0  0
   -2.4180    2.9579    0.0000 C   0  0  0
   -2.1597    0.5399    0.0000 C   0  0  0
   -0.4930    4.6951    0.0000 C   0  0  0
   -3.8030    2.3593    0.0000 C   0  0  0
   -1.9719    4.3899    0.0000 C   0  0  0
   -3.6387    0.8686    0.0000 N   0  0  0
   -0.0470    6.1271    0.0000 C   0  0  0
   -5.1176    3.1222    0.0000 O   0  0  0
   -4.7655   -0.1291    0.0000 C   0  0  0
    1.4085    6.4557    0.0000 N   0  0  0
   -4.4603   -1.5846    0.0000 C   0  0  0
   -6.1975    0.3404    0.0000 C   0  0  0
    2.4062    5.3524    0.0000 C   0  0  0
    1.8546    7.8877    0.0000 C   0  0  0
   -5.5871   -2.5706    0.0000 C   0  0  0
   -7.3243   -0.6573    0.0000 C   0  0  0
    3.8617    5.6811    0.0000 C   0  0  1
    3.3100    8.2164    0.0000 C   0  0  0
   -7.0309   -2.1010    0.0000 C   0  0  0
   -5.2820   -4.0260    0.0000 C   0  0  0
    4.8594    4.5777    0.0000 F   0  0  0
    4.3077    7.1131    0.0000 C   0  0  0
   -4.0378   -4.8359    0.0000 C   0  0  0
   -6.1153   -5.2702    0.0000 C   0  0  0
   -6.7140   -3.5565    0.0000 C   0  0  0
   -4.8711   -6.0801    0.0000 O   0  0  0
   -7.8408   -4.5542    0.0000 C   0  0  0
   -9.3197   -4.2256    0.0000 N   0  0  0
   -7.6999   -6.0332    0.0000 N   0  0  0
  -10.0827   -5.5167    0.0000 N   0  0  0
   -9.0850   -6.6318    0.0000 C   0  0  0
   -6.4088   -6.7727    0.0000 C   0  0  0
  1  2  1
  2  3  1
  2  4  1
  2  5  1
  5  6  2
  5  7  1
  6  8  1
  6  9  1
  7 10  2
  8 11  1
  8 12  2
  9 13  1
 10 14  1
 11 15  2
 13 16  1
 14 17  1
 16 18  2
 16 19  1
 17 20  1
 17 21  1
 18 22  1
 19 23  2
 24 20  1
 21 25  1
 22 26  2
 22 27  1
 24 28  1  6  0
 24 29  1
 27 30  1
 27 31  1
 27 32  1
 30 33  1
 32 34  1
 34 35  2
 34 36  1
 35 37  1
 36 38  1
 36 39  1
 10 12  1
 11 13  1
 23 26  1
 25 29  1
 31 33  1
 37 38  2
M  END
> <COMPOUND_NAMES>
Example 432 (S) (Page No: 588)

> <Reference>
WO2019148005

> <IC50_range_nM>
<100

> <smiles>
Cn1cnnc1CC1(COC1)c1cccc(c1)N1Cc2c(cc(CN3CCC[C@@H](C3)F)cc2C(F)(F)F)C1=O

$$$$
C28H29F4N5O2
  MOLSOFT 03092310482D

 39 44  0  0  1  0  0  0  0  0999 V2000
    0.0000   -0.0000    0.0000 F   0  0  0
    1.1033    1.0094    0.0000 C   0  0  0
    2.1010   -0.0939    0.0000 F   0  0  0
    2.2067    2.0306    0.0000 F   0  0  0
    0.0822    2.1363    0.0000 C   0  0  0
   -1.3968    1.8311    0.0000 C   0  0  0
    0.5282    3.5683    0.0000 C   0  0  0
   -2.4180    2.9579    0.0000 C   0  0  0
   -2.1597    0.5399    0.0000 C   0  0  0
   -0.4930    4.6951    0.0000 C   0  0  0
   -3.8030    2.3593    0.0000 C   0  0  0
   -1.9719    4.3899    0.0000 C   0  0  0
   -3.6387    0.8686    0.0000 N   0  0  0
   -0.0470    6.1271    0.0000 C   0  0  0
   -5.1176    3.1222    0.0000 O   0  0  0
   -4.7655   -0.1291    0.0000 C   0  0  0
    1.4085    6.4557    0.0000 N   0  0  0
   -4.4603   -1.5846    0.0000 C   0  0  0
   -6.1975    0.3404    0.0000 C   0  0  0
    2.4062    5.3524    0.0000 C   0  0  0
    1.8546    7.8877    0.0000 C   0  0  0
   -5.5871   -2.5706    0.0000 C   0  0  0
   -7.3243   -0.6573    0.0000 C   0  0  0
    3.8617    5.6811    0.0000 C   0  0  2
    3.3100    8.2164    0.0000 C   0  0  0
   -7.0309   -2.1010    0.0000 C   0  0  0
   -5.2820   -4.0260    0.0000 C   0  0  0
    4.8594    4.5777    0.0000 F   0  0  0
    4.3077    7.1131    0.0000 C   0  0  0
   -4.0378   -4.8359    0.0000 C   0  0  0
   -6.1153   -5.2702    0.0000 C   0  0  0
   -6.7140   -3.5565    0.0000 C   0  0  0
   -4.8711   -6.0801    0.0000 O   0  0  0
   -7.8408   -4.5542    0.0000 C   0  0  0
   -9.3197   -4.2256    0.0000 N   0  0  0
   -7.6999   -6.0332    0.0000 N   0  0  0
  -10.0827   -5.5167    0.0000 N   0  0  0
   -9.0850   -6.6318    0.0000 C   0  0  0
   -6.4088   -6.7727    0.0000 C   0  0  0
  1  2  1
  2  3  1
  2  4  1
  2  5  1
  5  6  2
  5  7  1
  6  8  1
  6  9  1
  7 10  2
  8 11  1
  8 12  2
  9 13  1
 10 14  1
 11 15  2
 13 16  1
 14 17  1
 16 18  2
 16 19  1
 17 20  1
 17 21  1
 18 22  1
 19 23  2
 24 20  1
 21 25  1
 22 26  2
 22 27  1
 24 28  1  1  0
 24 29  1
 27 30  1
 27 31  1
 27 32  1
 30 33  1
 32 34  1
 34 35  2
 34 36  1
 35 37  1
 36 38  1
 36 39  1
 10 12  1
 11 13  1
 23 26  1
 25 29  1
 31 33  1
 37 38  2
M  END
> <COMPOUND_NAMES>
Example 623 (R) (Page No: 729)

> <Reference>
WO2019148005

> <IC50_range_nM>
<100

> <smiles>
Cn1cnnc1CC1(COC1)c1cccc(c1)N1Cc2c(cc(CN3CCC[C@H](C3)F)cc2C(F)(F)F)C1=O

$$$$
C29H31F4N5O2
  MOLSOFT 03092310482D

 40 45  0  0  1  0  0  0  0  0999 V2000
    0.0000   -0.0000    0.0000 F   0  0  0
   -0.7577   -1.2904    0.0000 C   0  0  0
   -2.0718   -0.5209    0.0000 F   0  0  0
   -1.5154   -2.5809    0.0000 F   0  0  0
    0.5327   -2.0244    0.0000 C   0  0  0
    0.5209   -3.5161    0.0000 C   0  0  0
    1.8232   -1.2668    0.0000 C   0  0  0
    1.8113   -4.2502    0.0000 C   0  0  0
   -0.6038   -4.5106    0.0000 C   0  0  0
    3.1136   -2.0008    0.0000 C   0  0  0
    1.4917   -5.7063    0.0000 C   0  0  0
    3.1018   -3.4925    0.0000 C   0  0  0
    0.0000   -5.8721    0.0000 N   0  0  0
    4.4041   -1.2431    0.0000 C   0  0  0
    2.4862   -6.8074    0.0000 O   0  0  0
   -0.7577   -7.1625    0.0000 C   0  0  0
    4.3922    0.2723    0.0000 N   0  0  0
   -0.0237   -8.4530    0.0000 C   0  0  0
   -2.2731   -7.1507    0.0000 C   0  0  0
    3.0781    1.0300    0.0000 C   0  0  0
    5.6827    1.0300    0.0000 C   0  0  0
   -0.7814   -9.7434    0.0000 C   0  0  0
   -3.0308   -8.4411    0.0000 C   0  0  0
    3.0663    2.5454    0.0000 C   0  0  2
    5.6708    2.5454    0.0000 C   0  0  0
   -2.2967   -9.7316    0.0000 C   0  0  0
   -0.0474  -11.0338    0.0000 C   0  0  0
    1.7522    3.3030    0.0000 F   0  0  0
    4.3567    3.3030    0.0000 C   0  0  1
    1.3970  -11.4127    0.0000 C   0  0  0
   -0.4499  -12.4782    0.0000 C   0  0  0
   -1.5627  -11.0220    0.0000 C   0  0  0
    4.3449    4.8184    0.0000 C   0  0  0
    0.9945  -12.8570    0.0000 O   0  0  0
   -2.3204  -12.3124    0.0000 C   0  0  0
   -1.7166  -13.6739    0.0000 N   0  0  0
   -3.8240  -12.4545    0.0000 N   0  0  0
   -2.8413  -14.6684    0.0000 N   0  0  0
   -4.1436  -13.9107    0.0000 C   0  0  0
   -4.8421  -11.3298    0.0000 C   0  0  0
  1  2  1
  2  3  1
  2  4  1
  2  5  1
  5  6  2
  5  7  1
  6  8  1
  6  9  1
  7 10  2
  8 11  1
  8 12  2
  9 13  1
 10 14  1
 11 15  2
 13 16  1
 14 17  1
 16 18  2
 16 19  1
 17 20  1
 17 21  1
 18 22  1
 19 23  2
 24 20  1
 21 25  1
 22 26  2
 22 27  1
 24 28  1  6  0
 24 29  1
 27 30  1
 27 31  1
 27 32  1
 29 33  1  6  0
 30 34  1
 32 35  1
 35 36  2
 35 37  1
 36 38  1
 37 39  1
 37 40  1
 10 12  1
 11 13  1
 23 26  1
 29 25  1
 31 34  1
 38 39  2
M  END
> <COMPOUND_NAMES>
Example 639a (Stereo) (Page No: 736)

> <Reference>
WO2019148005

> <IC50_range_nM>
<100

> <smiles>
C[C@@H]1CCN(Cc2cc3C(N(Cc3c(c2)C(F)(F)F)c2cccc(c2)C2(Cc3nncn3C)COC2)=O)C[C@@H]1F

$$$$
C29H31F4N5O2
  MOLSOFT 03092310482D

 40 45  0  0  1  0  0  0  0  0999 V2000
    0.0000   -0.0000    0.0000 F   0  0  0
   -0.7577   -1.2904    0.0000 C   0  0  0
   -2.0718   -0.5209    0.0000 F   0  0  0
   -1.5154   -2.5809    0.0000 F   0  0  0
    0.5327   -2.0244    0.0000 C   0  0  0
    0.5209   -3.5161    0.0000 C   0  0  0
    1.8232   -1.2668    0.0000 C   0  0  0
    1.8113   -4.2502    0.0000 C   0  0  0
   -0.6038   -4.5106    0.0000 C   0  0  0
    3.1136   -2.0008    0.0000 C   0  0  0
    1.4917   -5.7063    0.0000 C   0  0  0
    3.1018   -3.4925    0.0000 C   0  0  0
    0.0000   -5.8721    0.0000 N   0  0  0
    4.4041   -1.2431    0.0000 C   0  0  0
    2.4862   -6.8074    0.0000 O   0  0  0
   -0.7577   -7.1625    0.0000 C   0  0  0
    4.3922    0.2723    0.0000 N   0  0  0
   -0.0237   -8.4530    0.0000 C   0  0  0
   -2.2731   -7.1507    0.0000 C   0  0  0
    3.0781    1.0300    0.0000 C   0  0  0
    5.6827    1.0300    0.0000 C   0  0  0
   -0.7814   -9.7434    0.0000 C   0  0  0
   -3.0308   -8.4411    0.0000 C   0  0  0
    3.0663    2.5454    0.0000 C   0  0  2
    5.6708    2.5454    0.0000 C   0  0  0
   -2.2967   -9.7316    0.0000 C   0  0  0
   -0.0474  -11.0338    0.0000 C   0  0  0
    1.7522    3.3030    0.0000 F   0  0  0
    4.3567    3.3030    0.0000 C   0  0  1
    1.3970  -11.4127    0.0000 C   0  0  0
   -0.4499  -12.4782    0.0000 C   0  0  0
   -1.5627  -11.0220    0.0000 C   0  0  0
    4.3449    4.8184    0.0000 C   0  0  0
    0.9945  -12.8570    0.0000 O   0  0  0
   -2.3204  -12.3124    0.0000 C   0  0  0
   -1.7166  -13.6739    0.0000 N   0  0  0
   -3.8240  -12.4545    0.0000 N   0  0  0
   -2.8413  -14.6684    0.0000 N   0  0  0
   -4.1436  -13.9107    0.0000 C   0  0  0
   -4.8421  -11.3298    0.0000 C   0  0  0
  1  2  1
  2  3  1
  2  4  1
  2  5  1
  5  6  2
  5  7  1
  6  8  1
  6  9  1
  7 10  2
  8 11  1
  8 12  2
  9 13  1
 10 14  1
 11 15  2
 13 16  1
 14 17  1
 16 18  2
 16 19  1
 17 20  1
 17 21  1
 18 22  1
 19 23  2
 24 20  1
 21 25  1
 22 26  2
 22 27  1
 24 28  1  6  0
 24 29  1
 27 30  1
 27 31  1
 27 32  1
 29 33  1  6  0
 30 34  1
 32 35  1
 35 36  2
 35 37  1
 36 38  1
 37 39  1
 37 40  1
 10 12  1
 11 13  1
 23 26  1
 29 25  1
 31 34  1
 38 39  2
M  END
> <COMPOUND_NAMES>
Example 639b (Stereo) (Page No: 736)

> <Reference>
WO2019148005

> <IC50_range_nM>
<100

> <smiles>
C[C@@H]1CCN(Cc2cc3C(N(Cc3c(c2)C(F)(F)F)c2cccc(c2)C2(Cc3nncn3C)COC2)=O)C[C@@H]1F

$$$$
C29H31F4N5O2
  MOLSOFT 03092310482D

 40 45  0  0  1  0  0  0  0  0999 V2000
    0.0000   -0.0000    0.0000 F   0  0  0
   -0.7577   -1.2904    0.0000 C   0  0  0
   -2.0718   -0.5209    0.0000 F   0  0  0
   -1.5154   -2.5809    0.0000 F   0  0  0
    0.5327   -2.0244    0.0000 C   0  0  0
    0.5209   -3.5161    0.0000 C   0  0  0
    1.8232   -1.2668    0.0000 C   0  0  0
    1.8113   -4.2502    0.0000 C   0  0  0
   -0.6038   -4.5106    0.0000 C   0  0  0
    3.1136   -2.0008    0.0000 C   0  0  0
    1.4917   -5.7063    0.0000 C   0  0  0
    3.1018   -3.4925    0.0000 C   0  0  0
    0.0000   -5.8721    0.0000 N   0  0  0
    4.4041   -1.2431    0.0000 C   0  0  0
    2.4862   -6.8074    0.0000 O   0  0  0
   -0.7577   -7.1625    0.0000 C   0  0  0
    4.3922    0.2723    0.0000 N   0  0  0
   -0.0237   -8.4530    0.0000 C   0  0  0
   -2.2731   -7.1507    0.0000 C   0  0  0
    3.0781    1.0300    0.0000 C   0  0  0
    5.6827    1.0300    0.0000 C   0  0  0
   -0.7814   -9.7434    0.0000 C   0  0  0
   -3.0308   -8.4411    0.0000 C   0  0  0
    3.0663    2.5454    0.0000 C   0  0  2
    5.6708    2.5454    0.0000 C   0  0  0
   -2.2967   -9.7316    0.0000 C   0  0  0
   -0.0474  -11.0338    0.0000 C   0  0  0
    1.7522    3.3030    0.0000 F   0  0  0
    4.3567    3.3030    0.0000 C   0  0  2
    1.3970  -11.4127    0.0000 C   0  0  0
   -0.4499  -12.4782    0.0000 C   0  0  0
   -1.5627  -11.0220    0.0000 C   0  0  0
    4.3449    4.8184    0.0000 C   0  0  0
    0.9945  -12.8570    0.0000 O   0  0  0
   -2.3204  -12.3124    0.0000 C   0  0  0
   -1.7166  -13.6739    0.0000 N   0  0  0
   -3.8240  -12.4545    0.0000 N   0  0  0
   -2.8413  -14.6684    0.0000 N   0  0  0
   -4.1436  -13.9107    0.0000 C   0  0  0
   -4.8421  -11.3298    0.0000 C   0  0  0
  1  2  1
  2  3  1
  2  4  1
  2  5  1
  5  6  2
  5  7  1
  6  8  1
  6  9  1
  7 10  2
  8 11  1
  8 12  2
  9 13  1
 10 14  1
 11 15  2
 13 16  1
 14 17  1
 16 18  2
 16 19  1
 17 20  1
 17 21  1
 18 22  1
 19 23  2
 24 20  1
 21 25  1
 22 26  2
 22 27  1
 24 28  1  6  0
 24 29  1
 27 30  1
 27 31  1
 27 32  1
 29 33  1  1  0
 30 34  1
 32 35  1
 35 36  2
 35 37  1
 36 38  1
 37 39  1
 37 40  1
 10 12  1
 11 13  1
 23 26  1
 29 25  1
 31 34  1
 38 39  2
M  END
> <COMPOUND_NAMES>
Example 631 (trans) (Page No: 733)

> <Reference>
WO2019148005

> <IC50_range_nM>
<100

> <smiles>
C[C@H]1CCN(Cc2cc3C(N(Cc3c(c2)C(F)(F)F)c2cccc(c2)C2(Cc3nncn3C)COC2)=O)C[C@@H]1F

$$$$
C28H28F5N5O2
  MOLSOFT 03092310482D

 40 45  0  0  1  0  0  0  0  0999 V2000
    0.0000   -0.0000    0.0000 F   0  0  0
    1.1035    1.0096    0.0000 C   0  0  0
    2.1013   -0.0939    0.0000 F   0  0  0
    2.2069    2.0309    0.0000 F   0  0  0
    0.0822    2.1365    0.0000 C   0  0  0
   -1.3970    1.8313    0.0000 C   0  0  0
    0.5283    3.5687    0.0000 C   0  0  0
   -2.4183    2.9582    0.0000 C   0  0  0
   -2.1600    0.5400    0.0000 C   0  0  0
   -0.4930    4.6956    0.0000 C   0  0  0
   -3.8035    2.3596    0.0000 C   0  0  0
   -1.9722    4.3904    0.0000 C   0  0  0
   -3.6391    0.8687    0.0000 N   0  0  0
   -0.0470    6.1278    0.0000 C   0  0  0
   -5.1182    3.1226    0.0000 O   0  0  0
   -4.7661   -0.1291    0.0000 C   0  0  0
    1.4087    6.4565    0.0000 N   0  0  0
   -4.4608   -1.5848    0.0000 C   0  0  0
   -6.1982    0.3404    0.0000 C   0  0  0
    2.4065    5.3530    0.0000 C   0  0  0
    1.8548    7.8887    0.0000 C   0  0  0
   -5.5878   -2.5709    0.0000 C   0  0  0
   -7.3252   -0.6574    0.0000 C   0  0  0
    3.8622    5.6817    0.0000 C   0  0  2
    3.3104    8.2174    0.0000 C   0  0  0
   -7.0317   -2.1013    0.0000 C   0  0  0
   -5.2826   -4.0265    0.0000 C   0  0  0
    4.8600    4.5782    0.0000 F   0  0  0
    4.3082    7.1139    0.0000 C   0  0  1
   -4.0382   -4.8365    0.0000 C   0  0  0
   -6.1161   -5.2708    0.0000 C   0  0  0
   -6.7148   -3.5569    0.0000 C   0  0  0
    5.7639    7.4426    0.0000 F   0  0  0
   -4.8717   -6.0808    0.0000 O   0  0  0
   -7.8417   -4.5548    0.0000 C   0  0  0
   -9.3208   -4.2261    0.0000 N   0  0  0
   -7.7008   -6.0339    0.0000 N   0  0  0
  -10.0839   -5.5174    0.0000 N   0  0  0
   -9.0860   -6.6326    0.0000 C   0  0  0
   -6.4095   -6.7734    0.0000 C   0  0  0
  1  2  1
  2  3  1
  2  4  1
  2  5  1
  5  6  2
  5  7  1
  6  8  1
  6  9  1
  7 10  2
  8 11  1
  8 12  2
  9 13  1
 10 14  1
 11 15  2
 13 16  1
 14 17  1
 16 18  2
 16 19  1
 17 20  1
 17 21  1
 18 22  1
 19 23  2
 24 20  1
 21 25  1
 22 26  2
 22 27  1
 24 28  1  1  0
 24 29  1
 27 30  1
 27 31  1
 27 32  1
 29 33  1  1  0
 30 34  1
 32 35  1
 35 36  2
 35 37  1
 36 38  1
 37 39  1
 37 40  1
 10 12  1
 11 13  1
 23 26  1
 29 25  1
 31 34  1
 38 39  2
M  END
> <COMPOUND_NAMES>
Example 634 (cis) (Page No: 734)

> <Reference>
WO2019148005

> <IC50_range_nM>
<100

> <smiles>
Cn1cnnc1CC1(COC1)c1cccc(c1)N1Cc2c(cc(CN3CC[C@H]([C@H](C3)F)F)cc2C(F)(F)F)C1=O

$$$$
C28H28F5N5O2
  MOLSOFT 03092310482D

 40 45  0  0  1  0  0  0  0  0999 V2000
    0.0000   -0.0000    0.0000 F   0  0  0
    1.1035    1.0096    0.0000 C   0  0  0
    2.1013   -0.0939    0.0000 F   0  0  0
    2.2069    2.0309    0.0000 F   0  0  0
    0.0822    2.1365    0.0000 C   0  0  0
   -1.3970    1.8313    0.0000 C   0  0  0
    0.5283    3.5687    0.0000 C   0  0  0
   -2.4183    2.9582    0.0000 C   0  0  0
   -2.1600    0.5400    0.0000 C   0  0  0
   -0.4930    4.6956    0.0000 C   0  0  0
   -3.8035    2.3596    0.0000 C   0  0  0
   -1.9722    4.3904    0.0000 C   0  0  0
   -3.6391    0.8687    0.0000 N   0  0  0
   -0.0470    6.1278    0.0000 C   0  0  0
   -5.1182    3.1226    0.0000 O   0  0  0
   -4.7661   -0.1291    0.0000 C   0  0  0
    1.4087    6.4565    0.0000 N   0  0  0
   -4.4608   -1.5848    0.0000 C   0  0  0
   -6.1982    0.3404    0.0000 C   0  0  0
    2.4065    5.3530    0.0000 C   0  0  0
    1.8548    7.8887    0.0000 C   0  0  0
   -5.5878   -2.5709    0.0000 C   0  0  0
   -7.3252   -0.6574    0.0000 C   0  0  0
    3.8622    5.6817    0.0000 C   0  0  2
    3.3104    8.2174    0.0000 C   0  0  0
   -7.0317   -2.1013    0.0000 C   0  0  0
   -5.2826   -4.0265    0.0000 C   0  0  0
    4.8600    4.5782    0.0000 F   0  0  0
    4.3082    7.1139    0.0000 C   0  0  2
   -4.0382   -4.8365    0.0000 C   0  0  0
   -6.1161   -5.2708    0.0000 C   0  0  0
   -6.7148   -3.5569    0.0000 C   0  0  0
    5.7639    7.4426    0.0000 F   0  0  0
   -4.8717   -6.0808    0.0000 O   0  0  0
   -7.8417   -4.5548    0.0000 C   0  0  0
   -9.3208   -4.2261    0.0000 N   0  0  0
   -7.7008   -6.0339    0.0000 N   0  0  0
  -10.0839   -5.5174    0.0000 N   0  0  0
   -9.0860   -6.6326    0.0000 C   0  0  0
   -6.4095   -6.7734    0.0000 C   0  0  0
  1  2  1
  2  3  1
  2  4  1
  2  5  1
  5  6  2
  5  7  1
  6  8  1
  6  9  1
  7 10  2
  8 11  1
  8 12  2
  9 13  1
 10 14  1
 11 15  2
 13 16  1
 14 17  1
 16 18  2
 16 19  1
 17 20  1
 17 21  1
 18 22  1
 19 23  2
 24 20  1
 21 25  1
 22 26  2
 22 27  1
 24 28  1  1  0
 24 29  1
 27 30  1
 27 31  1
 27 32  1
 29 33  1  6  0
 30 34  1
 32 35  1
 35 36  2
 35 37  1
 36 38  1
 37 39  1
 37 40  1
 10 12  1
 11 13  1
 23 26  1
 29 25  1
 31 34  1
 38 39  2
M  END
> <COMPOUND_NAMES>
Example 626a (Stereo) (Page No: 730)

> <Reference>
WO2019148005

> <IC50_range_nM>
<100

> <smiles>
Cn1cnnc1CC1(COC1)c1cccc(c1)N1Cc2c(cc(CN3CC[C@@H]([C@H](C3)F)F)cc2C(F)(F)F)C1=O

$$$$
C28H28F5N5O2
  MOLSOFT 03092310482D

 40 45  0  0  1  0  0  0  0  0999 V2000
    0.0000   -0.0000    0.0000 F   0  0  0
    1.1035    1.0096    0.0000 C   0  0  0
    2.1013   -0.0939    0.0000 F   0  0  0
    2.2069    2.0309    0.0000 F   0  0  0
    0.0822    2.1365    0.0000 C   0  0  0
   -1.3970    1.8313    0.0000 C   0  0  0
    0.5283    3.5687    0.0000 C   0  0  0
   -2.4183    2.9582    0.0000 C   0  0  0
   -2.1600    0.5400    0.0000 C   0  0  0
   -0.4930    4.6956    0.0000 C   0  0  0
   -3.8035    2.3596    0.0000 C   0  0  0
   -1.9722    4.3904    0.0000 C   0  0  0
   -3.6391    0.8687    0.0000 N   0  0  0
   -0.0470    6.1278    0.0000 C   0  0  0
   -5.1182    3.1226    0.0000 O   0  0  0
   -4.7661   -0.1291    0.0000 C   0  0  0
    1.4087    6.4565    0.0000 N   0  0  0
   -4.4608   -1.5848    0.0000 C   0  0  0
   -6.1982    0.3404    0.0000 C   0  0  0
    2.4065    5.3530    0.0000 C   0  0  0
    1.8548    7.8887    0.0000 C   0  0  0
   -5.5878   -2.5709    0.0000 C   0  0  0
   -7.3252   -0.6574    0.0000 C   0  0  0
    3.8622    5.6817    0.0000 C   0  0  2
    3.3104    8.2174    0.0000 C   0  0  0
   -7.0317   -2.1013    0.0000 C   0  0  0
   -5.2826   -4.0265    0.0000 C   0  0  0
    4.8600    4.5782    0.0000 F   0  0  0
    4.3082    7.1139    0.0000 C   0  0  2
   -4.0382   -4.8365    0.0000 C   0  0  0
   -6.1161   -5.2708    0.0000 C   0  0  0
   -6.7148   -3.5569    0.0000 C   0  0  0
    5.7639    7.4426    0.0000 F   0  0  0
   -4.8717   -6.0808    0.0000 O   0  0  0
   -7.8417   -4.5548    0.0000 C   0  0  0
   -9.3208   -4.2261    0.0000 N   0  0  0
   -7.7008   -6.0339    0.0000 N   0  0  0
  -10.0839   -5.5174    0.0000 N   0  0  0
   -9.0860   -6.6326    0.0000 C   0  0  0
   -6.4095   -6.7734    0.0000 C   0  0  0
  1  2  1
  2  3  1
  2  4  1
  2  5  1
  5  6  2
  5  7  1
  6  8  1
  6  9  1
  7 10  2
  8 11  1
  8 12  2
  9 13  1
 10 14  1
 11 15  2
 13 16  1
 14 17  1
 16 18  2
 16 19  1
 17 20  1
 17 21  1
 18 22  1
 19 23  2
 24 20  1
 21 25  1
 22 26  2
 22 27  1
 24 28  1  1  0
 24 29  1
 27 30  1
 27 31  1
 27 32  1
 29 33  1  6  0
 30 34  1
 32 35  1
 35 36  2
 35 37  1
 36 38  1
 37 39  1
 37 40  1
 10 12  1
 11 13  1
 23 26  1
 29 25  1
 31 34  1
 38 39  2
M  END
> <COMPOUND_NAMES>
Example 626b (Stereo) (Page No: 730)

> <Reference>
WO2019148005

> <IC50_range_nM>
<100

> <smiles>
Cn1cnnc1CC1(COC1)c1cccc(c1)N1Cc2c(cc(CN3CC[C@@H]([C@H](C3)F)F)cc2C(F)(F)F)C1=O

$$$$
C29H31F4N5O2
  MOLSOFT 03092310482D

 40 45  0  0  0  0  0  0  0  0999 V2000
    0.0000   -0.0000    0.0000 F   0  0  0
    1.0989    1.0162    0.0000 C   0  0  0
    2.0915   -0.0827    0.0000 F   0  0  0
    2.1979    2.0325    0.0000 F   0  0  0
    0.0827    2.1388    0.0000 C   0  0  0
   -1.3944    1.8434    0.0000 C   0  0  0
    0.5317    3.5804    0.0000 C   0  0  0
   -2.4106    2.9660    0.0000 C   0  0  0
   -2.1624    0.5554    0.0000 C   0  0  0
   -0.4845    4.7030    0.0000 C   0  0  0
   -3.7931    2.3633    0.0000 C   0  0  0
   -1.9616    4.4076    0.0000 C   0  0  0
   -3.6395    0.8744    0.0000 N   0  0  0
   -0.0354    6.1447    0.0000 C   0  0  0
   -5.1048    3.1314    0.0000 O   0  0  0
   -4.7621   -0.1182    0.0000 C   0  0  0
    1.4180    6.4637    0.0000 N   0  0  0
   -4.4667   -1.5716    0.0000 C   0  0  0
   -6.2037    0.3545    0.0000 C   0  0  0
    2.3279    5.2820    0.0000 C   0  0  0
    1.7607    7.9290    0.0000 C   0  0  0
   -5.5893   -2.5642    0.0000 C   0  0  0
   -7.3263   -0.6381    0.0000 C   0  0  0
    3.8168    5.2702    0.0000 C   0  0  3
    3.1078    8.5671    0.0000 C   0  0  0
   -7.0309   -2.0915    0.0000 C   0  0  0
   -5.2939   -4.0177    0.0000 C   0  0  0
    4.4431    3.9231    0.0000 F   0  0  0
    4.7621    6.4401    0.0000 C   0  0  0
    4.4431    7.9053    0.0000 C   0  0  0
   -4.0413   -4.8212    0.0000 C   0  0  0
   -6.1210   -5.2702    0.0000 C   0  0  0
   -6.7355   -3.5450    0.0000 C   0  0  0
   -4.8685   -6.0738    0.0000 O   0  0  0
   -7.8581   -4.5376    0.0000 C   0  0  0
   -9.3352   -4.2185    0.0000 N   0  0  0
   -7.7163   -6.0147    0.0000 N   0  0  0
  -10.1032   -5.5066    0.0000 N   0  0  0
   -9.0988   -6.6173    0.0000 C   0  0  0
   -6.4283   -6.7591    0.0000 C   0  0  0
  1  2  1
  2  3  1
  2  4  1
  2  5  1
  5  6  2
  5  7  1
  6  8  1
  6  9  1
  7 10  2
  8 11  1
  8 12  2
  9 13  1
 10 14  1
 11 15  2
 13 16  1
 14 17  1
 16 18  2
 16 19  1
 17 20  1
 17 21  1
 18 22  1
 19 23  2
 24 20  1
 21 25  1
 22 26  2
 22 27  1
 24 28  1
 24 29  1
 25 30  1
 27 31  1
 27 32  1
 27 33  1
 31 34  1
 33 35  1
 35 36  2
 35 37  1
 36 38  1
 37 39  1
 37 40  1
 10 12  1
 11 13  1
 23 26  1
 29 30  1
 32 34  1
 38 39  2
M  END
> <COMPOUND_NAMES>
Example 627 (+/-) (Page No: 731)

> <Reference>
WO2019148005

> <IC50_range_nM>
<100

> <smiles>
Cn1cnnc1CC1(COC1)c1cccc(c1)N1Cc2c(cc(CN3CCCCC(C3)F)cc2C(F)(F)F)C1=O

$$$$
C28H28F5N5O2
  MOLSOFT 03092310482D

 40 45  0  0  0  0  0  0  0  0999 V2000
    0.0000   -0.0000    0.0000 F   0  0  0
   -0.3292    1.4816    0.0000 C   0  0  0
    1.0818    1.0348    0.0000 F   0  0  0
   -1.8109    1.1759    0.0000 C   0  0  0
    0.1176    2.9162    0.0000 C   0  0  0
   -2.8221    2.3047    0.0000 N   0  0  0
   -0.8937    4.0451    0.0000 C   0  0  0
   -2.3753    3.7393    0.0000 C   0  0  0
   -4.3037    1.9990    0.0000 C   0  0  0
   -4.7741    0.5879    0.0000 C   0  0  0
   -3.7864   -0.5174    0.0000 C   0  0  0
   -6.2557    0.2822    0.0000 C   0  0  0
   -4.2567   -1.9285    0.0000 C   0  0  0
   -6.7261   -1.1289    0.0000 C   0  0  0
   -5.7383   -2.2342    0.0000 C   0  0  0
   -3.2690   -3.0338    0.0000 C   0  0  0
   -8.1136   -1.7286    0.0000 C   0  0  0
   -6.5027   -3.5277    0.0000 C   0  0  0
   -4.3978   -4.0215    0.0000 F   0  0  0
   -2.2812   -4.1391    0.0000 F   0  0  0
   -2.1636   -2.0225    0.0000 F   0  0  0
   -9.4306   -0.9642    0.0000 O   0  0  0
   -7.9725   -3.2102    0.0000 N   0  0  0
   -9.1014   -4.1979    0.0000 C   0  0  0
   -8.7956   -5.6560    0.0000 C   0  0  0
  -10.5359   -3.7276    0.0000 C   0  0  0
   -9.9245   -6.6438    0.0000 C   0  0  0
  -11.6648   -4.7153    0.0000 C   0  0  0
  -11.3591   -6.1734    0.0000 C   0  0  0
   -9.6188   -8.1019    0.0000 C   0  0  0
   -8.3723   -8.9132    0.0000 C   0  0  0
  -10.4536   -9.3483    0.0000 C   0  0  0
  -11.0533   -7.6315    0.0000 C   0  0  0
   -9.2072  -10.1597    0.0000 O   0  0  0
  -12.1822   -8.6193    0.0000 C   0  0  0
  -13.6638   -8.2900    0.0000 N   0  0  0
  -12.0411  -10.1009    0.0000 N   0  0  0
  -14.4281   -9.5835    0.0000 N   0  0  0
  -13.4286  -10.7006    0.0000 C   0  0  0
  -10.7476  -10.8417    0.0000 C   0  0  0
  1  2  1
  2  3  1
  2  4  1
  2  5  1
  4  6  1
  5  7  1
  6  8  1
  6  9  1
  9 10  1
 10 11  2
 10 12  1
 11 13  1
 12 14  2
 13 15  2
 13 16  1
 14 17  1
 15 18  1
 16 19  1
 16 20  1
 16 21  1
 17 22  2
 17 23  1
 23 24  1
 24 25  2
 24 26  1
 25 27  1
 26 28  2
 27 29  2
 27 30  1
 30 31  1
 30 32  1
 30 33  1
 31 34  1
 33 35  1
 35 36  2
 35 37  1
 36 38  1
 37 39  1
 37 40  1
  7  8  1
 14 15  1
 18 23  1
 28 29  1
 32 34  1
 38 39  2
M  END
> <COMPOUND_NAMES>
Example 693 (Page No: 770)

> <Reference>
WO2019148005

> <IC50_range_nM>
<100

> <smiles>
Cn1cnnc1CC1(COC1)c1cccc(c1)N1Cc2c(cc(CN3CCCC(C3)(F)F)cc2C(F)(F)F)C1=O

$$$$
C29H30F5N5O2
  MOLSOFT 03092310482D

 41 46  0  0  0  0  0  0  0  0999 V2000
    0.0000   -0.0000    0.0000 F   0  0  0
    1.2903    0.7576    0.0000 C   0  0  0
   -0.0237    1.5152    0.0000 F   0  0  0
    2.5806    1.5152    0.0000 C   0  0  3
    1.2785   -0.7339    0.0000 C   0  0  0
    3.8709    0.7813    0.0000 C   0  0  0
    2.5688    3.0304    0.0000 C   0  0  0
    2.5688   -1.4679    0.0000 N   0  0  0
    3.8591   -0.7103    0.0000 C   0  0  0
    2.5569   -2.9594    0.0000 C   0  0  0
    1.2430   -3.6934    0.0000 C   0  0  0
   -0.0710   -2.9357    0.0000 C   0  0  0
    1.2311   -5.1849    0.0000 C   0  0  0
   -1.3850   -3.6697    0.0000 C   0  0  0
   -0.0829   -5.9188    0.0000 C   0  0  0
   -1.3968   -5.1612    0.0000 C   0  0  0
   -2.6990   -2.9121    0.0000 C   0  0  0
   -0.4025   -7.3749    0.0000 C   0  0  0
   -2.5214   -6.1556    0.0000 C   0  0  0
   -1.9651   -1.5981    0.0000 F   0  0  0
   -4.0130   -2.1426    0.0000 F   0  0  0
   -3.4566   -4.2024    0.0000 F   0  0  0
    0.5919   -8.4758    0.0000 O   0  0  0
   -1.9059   -7.5169    0.0000 N   0  0  0
   -2.6635   -8.8072    0.0000 C   0  0  0
   -1.9295  -10.0975    0.0000 C   0  0  0
   -4.1787   -8.7954    0.0000 C   0  0  0
   -2.6872  -11.3878    0.0000 C   0  0  0
   -4.9363  -10.0857    0.0000 C   0  0  0
   -4.2024  -11.3760    0.0000 C   0  0  0
   -1.9532  -12.6781    0.0000 C   0  0  0
   -0.5090  -13.0570    0.0000 C   0  0  0
   -2.3557  -14.1223    0.0000 C   0  0  0
   -3.4684  -12.6663    0.0000 C   0  0  0
   -0.9115  -14.5011    0.0000 O   0  0  0
   -4.2260  -13.9566    0.0000 C   0  0  0
   -3.6223  -15.3179    0.0000 N   0  0  0
   -5.7294  -14.0987    0.0000 N   0  0  0
   -4.7469  -16.3123    0.0000 N   0  0  0
   -6.0491  -15.5547    0.0000 C   0  0  0
   -6.7475  -12.9741    0.0000 C   0  0  0
  1  2  1
  2  3  1
  4  2  1
  2  5  1
  4  6  1
  4  7  1
  5  8  1
  6  9  1
  8 10  1
 10 11  1
 11 12  2
 11 13  1
 12 14  1
 13 15  2
 14 16  2
 14 17  1
 15 18  1
 16 19  1
 17 20  1
 17 21  1
 17 22  1
 18 23  2
 18 24  1
 24 25  1
 25 26  2
 25 27  1
 26 28  1
 27 29  2
 28 30  2
 28 31  1
 31 32  1
 31 33  1
 31 34  1
 32 35  1
 34 36  1
 36 37  2
 36 38  1
 37 39  1
 38 40  1
 38 41  1
  8  9  1
 15 16  1
 19 24  1
 29 30  1
 33 35  1
 39 40  2
M  END
> <COMPOUND_NAMES>
Example 635 (+/-) (Page No: 735)

> <Reference>
WO2019148005

> <IC50_range_nM>
<100

> <smiles>
CC1CCN(Cc2cc3C(N(Cc3c(c2)C(F)(F)F)c2cccc(c2)C2(Cc3nncn3C)COC2)=O)CC1(F)F

$$$$
C29H30F5N5O3
  MOLSOFT 03092310482D

 42 47  0  0  1  0  0  0  0  0999 V2000
    0.0000   -0.0000    0.0000 F   0  0  0
   -0.3293    1.4817    0.0000 C   0  0  0
    1.0819    1.0348    0.0000 F   0  0  0
    0.1176    2.9163    0.0000 C   0  0  1
   -1.8109    1.1759    0.0000 C   0  0  0
   -0.8937    4.0452    0.0000 C   0  0  0
    1.5757    3.2456    0.0000 C   0  0  0
   -2.8222    2.3048    0.0000 N   0  0  0
   -2.3754    3.7395    0.0000 C   0  0  0
    2.0226    4.6802    0.0000 O   0  0  0
   -4.3039    1.9991    0.0000 C   0  0  0
   -4.7743    0.5880    0.0000 C   0  0  0
   -3.7865   -0.5174    0.0000 C   0  0  0
   -6.2560    0.2822    0.0000 C   0  0  0
   -4.2569   -1.9285    0.0000 C   0  0  0
   -6.7263   -1.1289    0.0000 C   0  0  0
   -5.7385   -2.2343    0.0000 C   0  0  0
   -3.2691   -3.0339    0.0000 C   0  0  0
   -8.1139   -1.7286    0.0000 C   0  0  0
   -6.5029   -3.5278    0.0000 C   0  0  0
   -4.3980   -4.0217    0.0000 F   0  0  0
   -2.2813   -4.1393    0.0000 F   0  0  0
   -2.1637   -2.0226    0.0000 F   0  0  0
   -9.4310   -0.9643    0.0000 O   0  0  0
   -7.9728   -3.2103    0.0000 N   0  0  0
   -9.1017   -4.1981    0.0000 C   0  0  0
   -8.7960   -5.6562    0.0000 C   0  0  0
  -10.5363   -3.7277    0.0000 C   0  0  0
   -9.9249   -6.6440    0.0000 C   0  0  0
  -11.6652   -4.7155    0.0000 C   0  0  0
  -11.3595   -6.1736    0.0000 C   0  0  0
   -9.6191   -8.1022    0.0000 C   0  0  0
   -8.3726   -8.9136    0.0000 C   0  0  0
  -10.4540   -9.3487    0.0000 C   0  0  0
  -11.0538   -7.6318    0.0000 C   0  0  0
   -9.2075  -10.1600    0.0000 O   0  0  0
  -12.1826   -8.6196    0.0000 C   0  0  0
  -13.6643   -8.2903    0.0000 N   0  0  0
  -12.0415  -10.1012    0.0000 N   0  0  0
  -14.4287   -9.5838    0.0000 N   0  0  0
  -13.4291  -10.7010    0.0000 C   0  0  0
  -10.7480  -10.8421    0.0000 C   0  0  0
  1  2  1
  2  3  1
  4  2  1
  2  5  1
  4  6  1
  4  7  1  1  0
  5  8  1
  6  9  1
  7 10  1
  8 11  1
 11 12  1
 12 13  2
 12 14  1
 13 15  1
 14 16  2
 15 17  2
 15 18  1
 16 19  1
 17 20  1
 18 21  1
 18 22  1
 18 23  1
 19 24  2
 19 25  1
 25 26  1
 26 27  2
 26 28  1
 27 29  1
 28 30  2
 29 31  2
 29 32  1
 32 33  1
 32 34  1
 32 35  1
 33 36  1
 35 37  1
 37 38  2
 37 39  1
 38 40  1
 39 41  1
 39 42  1
  8  9  1
 16 17  1
 20 25  1
 30 31  1
 34 36  1
 40 41  2
M  END
> <COMPOUND_NAMES>
Example 644a (S) (Page No: 739)

> <Reference>
WO2019148005

> <IC50_range_nM>
<100

> <smiles>
Cn1cnnc1CC1(COC1)c1cccc(c1)N1Cc2c(cc(CN3CC[C@@H](CO)C(C3)(F)F)cc2C(F)(F)F)C1=O

$$$$
C29H30F5N5O3
  MOLSOFT 03092310482D

 42 47  0  0  1  0  0  0  0  0999 V2000
    0.0000   -0.0000    0.0000 F   0  0  0
   -0.3293    1.4817    0.0000 C   0  0  0
    1.0819    1.0348    0.0000 F   0  0  0
    0.1176    2.9163    0.0000 C   0  0  2
   -1.8109    1.1759    0.0000 C   0  0  0
   -0.8937    4.0452    0.0000 C   0  0  0
    1.5757    3.2456    0.0000 C   0  0  0
   -2.8222    2.3048    0.0000 N   0  0  0
   -2.3754    3.7395    0.0000 C   0  0  0
    2.0226    4.6802    0.0000 O   0  0  0
   -4.3039    1.9991    0.0000 C   0  0  0
   -4.7743    0.5880    0.0000 C   0  0  0
   -3.7865   -0.5174    0.0000 C   0  0  0
   -6.2560    0.2822    0.0000 C   0  0  0
   -4.2569   -1.9285    0.0000 C   0  0  0
   -6.7263   -1.1289    0.0000 C   0  0  0
   -5.7385   -2.2343    0.0000 C   0  0  0
   -3.2691   -3.0339    0.0000 C   0  0  0
   -8.1139   -1.7286    0.0000 C   0  0  0
   -6.5029   -3.5278    0.0000 C   0  0  0
   -4.3980   -4.0217    0.0000 F   0  0  0
   -2.2813   -4.1393    0.0000 F   0  0  0
   -2.1637   -2.0226    0.0000 F   0  0  0
   -9.4310   -0.9643    0.0000 O   0  0  0
   -7.9728   -3.2103    0.0000 N   0  0  0
   -9.1017   -4.1981    0.0000 C   0  0  0
   -8.7960   -5.6562    0.0000 C   0  0  0
  -10.5363   -3.7277    0.0000 C   0  0  0
   -9.9249   -6.6440    0.0000 C   0  0  0
  -11.6652   -4.7155    0.0000 C   0  0  0
  -11.3595   -6.1736    0.0000 C   0  0  0
   -9.6191   -8.1022    0.0000 C   0  0  0
   -8.3726   -8.9136    0.0000 C   0  0  0
  -10.4540   -9.3487    0.0000 C   0  0  0
  -11.0538   -7.6318    0.0000 C   0  0  0
   -9.2075  -10.1600    0.0000 O   0  0  0
  -12.1826   -8.6196    0.0000 C   0  0  0
  -13.6643   -8.2903    0.0000 N   0  0  0
  -12.0415  -10.1012    0.0000 N   0  0  0
  -14.4287   -9.5838    0.0000 N   0  0  0
  -13.4291  -10.7010    0.0000 C   0  0  0
  -10.7480  -10.8421    0.0000 C   0  0  0
  1  2  1
  2  3  1
  4  2  1
  2  5  1
  4  6  1
  4  7  1  6  0
  5  8  1
  6  9  1
  7 10  1
  8 11  1
 11 12  1
 12 13  2
 12 14  1
 13 15  1
 14 16  2
 15 17  2
 15 18  1
 16 19  1
 17 20  1
 18 21  1
 18 22  1
 18 23  1
 19 24  2
 19 25  1
 25 26  1
 26 27  2
 26 28  1
 27 29  1
 28 30  2
 29 31  2
 29 32  1
 32 33  1
 32 34  1
 32 35  1
 33 36  1
 35 37  1
 37 38  2
 37 39  1
 38 40  1
 39 41  1
 39 42  1
  8  9  1
 16 17  1
 20 25  1
 30 31  1
 34 36  1
 40 41  2
M  END
> <COMPOUND_NAMES>
Example 644b (R) (Page No: 739)

> <Reference>
WO2019148005

> <IC50_range_nM>
<100

> <smiles>
Cn1cnnc1CC1(COC1)c1cccc(c1)N1Cc2c(cc(CN3CC[C@H](CO)C(C3)(F)F)cc2C(F)(F)F)C1=O

$$$$
C29H30F5N5O2
  MOLSOFT 03092310482D

 41 46  0  0  0  0  0  0  0  0999 V2000
    0.0000   -0.0000    0.0000 F   0  0  0
    1.1035    1.0096    0.0000 C   0  0  0
    2.1013   -0.0939    0.0000 F   0  0  0
    2.2069    2.0309    0.0000 F   0  0  0
    0.0822    2.1365    0.0000 C   0  0  0
   -1.3969    1.8313    0.0000 C   0  0  0
    0.5283    3.5687    0.0000 C   0  0  0
   -2.4182    2.9582    0.0000 C   0  0  0
   -2.1600    0.5400    0.0000 C   0  0  0
   -0.4930    4.6956    0.0000 C   0  0  0
   -3.8035    2.3596    0.0000 C   0  0  0
   -1.9722    4.3904    0.0000 C   0  0  0
   -3.6391    0.8687    0.0000 N   0  0  0
   -0.0470    6.1278    0.0000 C   0  0  0
   -5.1182    3.1226    0.0000 O   0  0  0
   -4.7661   -0.1291    0.0000 C   0  0  0
    1.4087    6.4565    0.0000 N   0  0  0
   -4.4608   -1.5848    0.0000 C   0  0  0
   -6.1982    0.3404    0.0000 C   0  0  0
    1.8548    7.8887    0.0000 C   0  0  0
    2.4065    5.3530    0.0000 C   0  0  0
   -5.5878   -2.5709    0.0000 C   0  0  0
   -7.3252   -0.6574    0.0000 C   0  0  0
    3.3104    8.2174    0.0000 C   0  0  0
    3.8622    5.6817    0.0000 C   0  0  0
   -7.0317   -2.1013    0.0000 C   0  0  0
   -5.2826   -4.0265    0.0000 C   0  0  0
    4.3082    7.1139    0.0000 C   0  0  0
   -4.0382   -4.8365    0.0000 C   0  0  0
   -6.1161   -5.2708    0.0000 C   0  0  0
   -6.7147   -3.5569    0.0000 C   0  0  0
    5.7639    7.4426    0.0000 C   0  0  0
   -4.8717   -6.0808    0.0000 O   0  0  0
   -7.8417   -4.5548    0.0000 C   0  0  0
    6.7617    6.3391    0.0000 F   0  0  0
    6.2100    8.8747    0.0000 F   0  0  0
   -9.3208   -4.2261    0.0000 N   0  0  0
   -7.7008   -6.0339    0.0000 N   0  0  0
  -10.0839   -5.5174    0.0000 N   0  0  0
   -9.0860   -6.6326    0.0000 C   0  0  0
   -6.4095   -6.7734    0.0000 C   0  0  0
  1  2  1
  2  3  1
  2  4  1
  2  5  1
  5  6  2
  5  7  1
  6  8  1
  6  9  1
  7 10  2
  8 11  1
  8 12  2
  9 13  1
 10 14  1
 11 15  2
 13 16  1
 14 17  1
 16 18  2
 16 19  1
 17 20  1
 17 21  1
 18 22  1
 19 23  2
 20 24  1
 21 25  1
 22 26  2
 22 27  1
 24 28  1
 27 29  1
 27 30  1
 27 31  1
 28 32  1
 29 33  1
 31 34  1
 32 35  1
 32 36  1
 34 37  2
 34 38  1
 37 39  1
 38 40  1
 38 41  1
 10 12  1
 11 13  1
 23 26  1
 25 28  1
 30 33  1
 39 40  2
M  END
> <COMPOUND_NAMES>
Example 643 (Page No: 738)

> <Reference>
WO2019148005

> <IC50_range_nM>
<100

> <smiles>
Cn1cnnc1CC1(COC1)c1cccc(c1)N1Cc2c(cc(CN3CCC(CC3)C(F)F)cc2C(F)(F)F)C1=O

$$$$
C29H31F4N5O3
  MOLSOFT 03092310482D

 41 46  0  0  1  0  0  0  0  0999 V2000
    0.0000   -0.0000    0.0000 F   0  0  0
   -0.7577   -1.2905    0.0000 C   0  0  0
   -2.0719   -0.5209    0.0000 F   0  0  0
   -1.5155   -2.5810    0.0000 F   0  0  0
    0.5328   -2.0246    0.0000 C   0  0  0
    0.5209   -3.5163    0.0000 C   0  0  0
    1.8233   -1.2668    0.0000 C   0  0  0
    1.8114   -4.2504    0.0000 C   0  0  0
   -0.6038   -4.5108    0.0000 C   0  0  0
    3.1138   -2.0009    0.0000 C   0  0  0
    1.4918   -5.7066    0.0000 C   0  0  0
    3.1019   -3.4926    0.0000 C   0  0  0
    0.0000   -5.8724    0.0000 N   0  0  0
    4.4043   -1.2431    0.0000 C   0  0  0
    2.4863   -6.8077    0.0000 O   0  0  0
   -0.7577   -7.1629    0.0000 C   0  0  0
    4.3925    0.2723    0.0000 N   0  0  0
   -0.0237   -8.4534    0.0000 C   0  0  0
   -2.2732   -7.1511    0.0000 C   0  0  0
    3.0783    1.0300    0.0000 C   0  0  0
    5.6830    1.0300    0.0000 C   0  0  0
   -0.7814   -9.7439    0.0000 C   0  0  0
   -3.0309   -8.4416    0.0000 C   0  0  0
    3.0664    2.5455    0.0000 C   0  0  2
    5.6711    2.5455    0.0000 C   0  0  0
   -2.2969   -9.7321    0.0000 C   0  0  0
   -0.0474  -11.0344    0.0000 C   0  0  0
    1.7522    3.3032    0.0000 F   0  0  0
    4.3569    3.3032    0.0000 C   0  0  1
    1.3971  -11.4133    0.0000 C   0  0  0
   -0.4499  -12.4788    0.0000 C   0  0  0
   -1.5628  -11.0226    0.0000 C   0  0  0
    4.3451    4.8187    0.0000 O   0  0  0
    0.9945  -12.8577    0.0000 O   0  0  0
   -2.3205  -12.3131    0.0000 C   0  0  0
    5.6356    5.5764    0.0000 C   0  0  0
   -1.7167  -13.6746    0.0000 N   0  0  0
   -3.8242  -12.4551    0.0000 N   0  0  0
   -2.8415  -14.6691    0.0000 N   0  0  0
   -4.1438  -13.9114    0.0000 C   0  0  0
   -4.8424  -11.3304    0.0000 C   0  0  0
  1  2  1
  2  3  1
  2  4  1
  2  5  1
  5  6  2
  5  7  1
  6  8  1
  6  9  1
  7 10  2
  8 11  1
  8 12  2
  9 13  1
 10 14  1
 11 15  2
 13 16  1
 14 17  1
 16 18  2
 16 19  1
 17 20  1
 17 21  1
 18 22  1
 19 23  2
 24 20  1
 21 25  1
 22 26  2
 22 27  1
 24 28  1  6  0
 24 29  1
 27 30  1
 27 31  1
 27 32  1
 29 33  1  6  0
 30 34  1
 32 35  1
 33 36  1
 35 37  2
 35 38  1
 37 39  1
 38 40  1
 38 41  1
 10 12  1
 11 13  1
 23 26  1
 29 25  1
 31 34  1
 39 40  2
M  END
> <COMPOUND_NAMES>
Example 621 (cis) (Page No: 727)

> <Reference>
WO2019148005

> <IC50_range_nM>
<100

> <smiles>
Cn1cnnc1CC1(COC1)c1cccc(c1)N1Cc2c(cc(CN3CC[C@H]([C@H](C3)F)OC)cc2C(F)(F)F)C1=O

$$$$
C28H31F3N6O2
  MOLSOFT 03092310482D

 39 44  0  0  0  0  0  0  0  0999 V2000
    0.0000   -0.0000    0.0000 F   0  0  0
    1.1033    1.0094    0.0000 C   0  0  0
    2.1009   -0.0939    0.0000 F   0  0  0
    2.2065    2.0305    0.0000 F   0  0  0
    0.0822    2.1361    0.0000 C   0  0  0
   -1.3967    1.8310    0.0000 C   0  0  0
    0.5282    3.5680    0.0000 C   0  0  0
   -2.4178    2.9577    0.0000 C   0  0  0
   -2.1596    0.5399    0.0000 C   0  0  0
   -0.4929    4.6948    0.0000 C   0  0  0
   -3.8028    2.3591    0.0000 C   0  0  0
   -1.9718    4.3896    0.0000 C   0  0  0
   -3.6384    0.8685    0.0000 N   0  0  0
   -0.0469    6.1267    0.0000 C   0  0  0
   -5.1173    3.1220    0.0000 O   0  0  0
   -4.7652   -0.1291    0.0000 C   0  0  0
    1.4084    6.4553    0.0000 N   0  0  0
   -4.4600   -1.5845    0.0000 C   0  0  0
   -6.1971    0.3404    0.0000 C   0  0  0
    1.8544    7.8872    0.0000 C   0  0  0
    2.4061    5.3520    0.0000 C   0  0  0
   -5.5868   -2.5704    0.0000 C   0  0  0
   -7.3238   -0.6573    0.0000 C   0  0  0
    3.3098    8.2158    0.0000 C   0  0  0
    3.8614    5.6807    0.0000 C   0  0  0
   -7.0304   -2.1009    0.0000 C   0  0  0
   -5.2816   -4.0258    0.0000 C   0  0  0
    4.3074    7.1126    0.0000 N   0  0  0
   -4.0375   -4.8356    0.0000 C   0  0  0
   -6.1149   -5.2699    0.0000 C   0  0  0
   -6.7135   -3.5563    0.0000 C   0  0  0
    5.7628    7.4412    0.0000 C   0  0  0
   -4.8708   -6.0797    0.0000 O   0  0  0
   -7.8402   -4.5539    0.0000 C   0  0  0
   -9.3191   -4.2253    0.0000 N   0  0  0
   -7.6994   -6.0328    0.0000 N   0  0  0
  -10.0820   -5.5163    0.0000 N   0  0  0
   -9.0844   -6.6313    0.0000 C   0  0  0
   -6.4083   -6.7722    0.0000 C   0  0  0
  1  2  1
  2  3  1
  2  4  1
  2  5  1
  5  6  2
  5  7  1
  6  8  1
  6  9  1
  7 10  2
  8 11  1
  8 12  2
  9 13  1
 10 14  1
 11 15  2
 13 16  1
 14 17  1
 16 18  2
 16 19  1
 17 20  1
 17 21  1
 18 22  1
 19 23  2
 20 24  1
 21 25  1
 22 26  2
 22 27  1
 24 28  1
 27 29  1
 27 30  1
 27 31  1
 28 32  1
 29 33  1
 31 34  1
 34 35  2
 34 36  1
 35 37  1
 36 38  1
 36 39  1
 10 12  1
 11 13  1
 23 26  1
 25 28  1
 30 33  1
 37 38  2
M  END
> <COMPOUND_NAMES>
Example 625 (Page No: 730)

> <Reference>
WO2019148005

> <IC50_range_nM>
<100

> <smiles>
CN1CCN(CC1)Cc1cc2C(N(Cc2c(c1)C(F)(F)F)c1cccc(c1)C1(Cc2nncn2C)COC1)=O

$$$$
C29H33F3N6O2
  MOLSOFT 03092310482D

 40 45  0  0  0  0  0  0  0  0999 V2000
    0.0000   -0.0000    0.0000 F   0  0  0
    0.7343   -1.2910    0.0000 C   0  0  0
   -0.5803   -2.0253    0.0000 F   0  0  0
    1.4686   -2.5819    0.0000 F   0  0  0
    2.0253   -0.5211    0.0000 C   0  0  0
    3.3162   -1.2673    0.0000 C   0  0  0
    2.0134    0.9949    0.0000 C   0  0  0
    4.6072   -0.4974    0.0000 C   0  0  0
    3.6123   -2.7240    0.0000 C   0  0  0
    3.3044    1.7529    0.0000 C   0  0  0
    5.7087   -1.4923    0.0000 C   0  0  0
    4.5953    1.0186    0.0000 C   0  0  0
    5.0928   -2.8662    0.0000 N   0  0  0
    3.2925    3.2689    0.0000 C   0  0  0
    7.1654   -1.1725    0.0000 O   0  0  0
    5.8271   -4.1571    0.0000 C   0  0  0
    1.9779    4.0387    0.0000 N   0  0  0
    7.3194   -4.1453    0.0000 C   0  0  0
    5.0691   -5.4481    0.0000 C   0  0  0
    1.9661    5.5547    0.0000 C   0  0  0
    0.6632    3.2925    0.0000 C   0  0  0
    8.0537   -5.4362    0.0000 C   0  0  0
    5.8034   -6.7391    0.0000 C   0  0  0
    0.6514    6.3245    0.0000 C   0  0  0
   -0.6514    4.0624    0.0000 C   0  0  0
    7.2957   -6.7272    0.0000 C   0  0  0
    9.5460   -5.4244    0.0000 C   0  0  0
   -0.6632    5.5784    0.0000 N   0  0  0
   10.6001   -4.3466    0.0000 C   0  0  0
   10.6001   -6.4785    0.0000 C   0  0  0
    8.7880   -6.7154    0.0000 C   0  0  0
   -1.9779    6.3482    0.0000 C   0  0  0
   11.6542   -5.4007    0.0000 O   0  0  0
    9.5223   -8.0063    0.0000 C   0  0  0
   -3.2925    5.6021    0.0000 C   0  0  0
   11.0028   -8.1484    0.0000 N   0  0  0
    8.8946   -9.3683    0.0000 N   0  0  0
   11.2989   -9.6052    0.0000 N   0  0  0
    9.9961  -10.3632    0.0000 C   0  0  0
    7.4141   -9.6644    0.0000 C   0  0  0
  1  2  1
  2  3  1
  2  4  1
  2  5  1
  5  6  2
  5  7  1
  6  8  1
  6  9  1
  7 10  2
  8 11  1
  8 12  2
  9 13  1
 10 14  1
 11 15  2
 13 16  1
 14 17  1
 16 18  2
 16 19  1
 17 20  1
 17 21  1
 18 22  1
 19 23  2
 20 24  1
 21 25  1
 22 26  2
 22 27  1
 24 28  1
 27 29  1
 27 30  1
 27 31  1
 28 32  1
 29 33  1
 31 34  1
 32 35  1
 34 36  2
 34 37  1
 36 38  1
 37 39  1
 37 40  1
 10 12  1
 11 13  1
 23 26  1
 25 28  1
 30 33  1
 38 39  2
M  END
> <COMPOUND_NAMES>
Example 624 (Page No: 729)

> <Reference>
WO2019148005

> <IC50_range_nM>
<100

> <smiles>
CCN1CCN(CC1)Cc1cc2C(N(Cc2c(c1)C(F)(F)F)c1cccc(c1)C1(Cc2nncn2C)COC1)=O

$$$$
C29H32F3N5O3
  MOLSOFT 03092310482D

 40 45  0  0  0  0  0  0  0  0999 V2000
    0.0000   -0.0000    0.0000 F   0  0  0
    0.7343   -1.2910    0.0000 C   0  0  0
   -0.5803   -2.0253    0.0000 F   0  0  0
    1.4686   -2.5819    0.0000 F   0  0  0
    2.0253   -0.5211    0.0000 C   0  0  0
    3.3162   -1.2673    0.0000 C   0  0  0
    2.0134    0.9949    0.0000 C   0  0  0
    4.6072   -0.4974    0.0000 C   0  0  0
    3.6123   -2.7240    0.0000 C   0  0  0
    3.3044    1.7529    0.0000 C   0  0  0
    5.7087   -1.4923    0.0000 C   0  0  0
    4.5953    1.0186    0.0000 C   0  0  0
    5.0928   -2.8662    0.0000 N   0  0  0
    3.2925    3.2689    0.0000 C   0  0  0
    7.1654   -1.1725    0.0000 O   0  0  0
    5.8271   -4.1571    0.0000 C   0  0  0
    1.9779    4.0387    0.0000 N   0  0  0
    7.3194   -4.1453    0.0000 C   0  0  0
    5.0691   -5.4481    0.0000 C   0  0  0
    1.9661    5.5547    0.0000 C   0  0  0
    0.6632    3.2925    0.0000 C   0  0  0
    8.0537   -5.4362    0.0000 C   0  0  0
    5.8034   -6.7391    0.0000 C   0  0  0
    0.6514    6.3245    0.0000 C   0  0  0
   -0.6514    4.0624    0.0000 C   0  0  0
    7.2957   -6.7272    0.0000 C   0  0  0
    9.5460   -5.4244    0.0000 C   0  0  0
   -0.6632    5.5784    0.0000 C   0  0  0
   10.6001   -4.3466    0.0000 C   0  0  0
   10.6001   -6.4785    0.0000 C   0  0  0
    8.7880   -6.7154    0.0000 C   0  0  0
   -1.9779    6.3482    0.0000 O   0  0  0
   11.6542   -5.4007    0.0000 O   0  0  0
    9.5223   -8.0063    0.0000 C   0  0  0
   -3.2925    5.6021    0.0000 C   0  0  0
   11.0028   -8.1484    0.0000 N   0  0  0
    8.8946   -9.3683    0.0000 N   0  0  0
   11.2989   -9.6052    0.0000 N   0  0  0
    9.9961  -10.3632    0.0000 C   0  0  0
    7.4141   -9.6644    0.0000 C   0  0  0
  1  2  1
  2  3  1
  2  4  1
  2  5  1
  5  6  2
  5  7  1
  6  8  1
  6  9  1
  7 10  2
  8 11  1
  8 12  2
  9 13  1
 10 14  1
 11 15  2
 13 16  1
 14 17  1
 16 18  2
 16 19  1
 17 20  1
 17 21  1
 18 22  1
 19 23  2
 20 24  1
 21 25  1
 22 26  2
 22 27  1
 24 28  1
 27 29  1
 27 30  1
 27 31  1
 28 32  1
 29 33  1
 31 34  1
 32 35  1
 34 36  2
 34 37  1
 36 38  1
 37 39  1
 37 40  1
 10 12  1
 11 13  1
 23 26  1
 25 28  1
 30 33  1
 38 39  2
M  END
> <COMPOUND_NAMES>
Example 632 (Page No: 733)

> <Reference>
WO2019148005

> <IC50_range_nM>
<100

> <smiles>
Cn1cnnc1CC1(COC1)c1cccc(c1)N1Cc2c(cc(CN3CCC(CC3)OC)cc2C(F)(F)F)C1=O

$$$$
C33H32F3N5O2
  MOLSOFT 03092310482D

 43 49  0  0  1  0  0  0  0  0999 V2000
    0.0000   -0.0000    0.0000 F   0  0  0
    1.1052    1.0112    0.0000 C   0  0  0
    2.0929   -0.0941    0.0000 F   0  0  0
    2.2105    2.0223    0.0000 F   0  0  0
    0.0941    2.1399    0.0000 C   0  0  0
   -1.3874    1.8342    0.0000 C   0  0  0
    0.5409    3.5744    0.0000 C   0  0  0
   -2.3986    2.9630    0.0000 C   0  0  0
   -2.1517    0.5409    0.0000 C   0  0  0
   -0.4703    4.7031    0.0000 C   0  0  0
   -3.7860    2.3633    0.0000 C   0  0  0
   -1.9518    4.3974    0.0000 C   0  0  0
   -3.6332    0.8701    0.0000 N   0  0  0
   -0.0235    6.1376    0.0000 C   0  0  0
   -5.1029    3.1276    0.0000 O   0  0  0
   -4.7619   -0.1176    0.0000 C   0  0  0
    1.4345    6.4668    0.0000 N   0  0  0
   -4.4562   -1.5756    0.0000 C   0  0  0
   -6.1964    0.3527    0.0000 C   0  0  0
    2.5397    5.4792    0.0000 C   0  0  0
    2.0341    7.8542    0.0000 C   0  0  0
   -5.5850   -2.5632    0.0000 C   0  0  0
   -7.3251   -0.6349    0.0000 C   0  0  0
    3.8213    6.2434    0.0000 C   0  0  2
    3.5156    7.7131    0.0000 C   0  0  0
   -7.0194   -2.0929    0.0000 C   0  0  0
   -5.2793   -4.0212    0.0000 C   0  0  0
    5.1852    5.6438    0.0000 C   0  0  0
   -4.0329   -4.8325    0.0000 C   0  0  0
   -6.1141   -5.2675    0.0000 C   0  0  0
   -6.7137   -3.5509    0.0000 C   0  0  0
    6.3845    6.5374    0.0000 C   0  0  0
    5.3263    4.1623    0.0000 C   0  0  0
   -4.8677   -6.0788    0.0000 O   0  0  0
   -7.8425   -4.5385    0.0000 C   0  0  0
    7.7484    5.9377    0.0000 C   0  0  0
    6.6902    3.5626    0.0000 C   0  0  0
   -9.3240   -4.2093    0.0000 N   0  0  0
   -7.7014   -6.0200    0.0000 N   0  0  0
    7.8895    4.4562    0.0000 C   0  0  0
  -10.0882   -5.5027    0.0000 N   0  0  0
   -9.0888   -6.6197    0.0000 C   0  0  0
   -6.4080   -6.7608    0.0000 C   0  0  0
  1  2  1
  2  3  1
  2  4  1
  2  5  1
  5  6  2
  5  7  1
  6  8  1
  6  9  1
  7 10  2
  8 11  1
  8 12  2
  9 13  1
 10 14  1
 11 15  2
 13 16  1
 14 17  1
 16 18  2
 16 19  1
 17 20  1
 17 21  1
 18 22  1
 19 23  2
 24 20  1
 21 25  1
 22 26  2
 22 27  1
 24 28  1  6  0
 27 29  1
 27 30  1
 27 31  1
 28 32  2
 28 33  1
 29 34  1
 31 35  1
 32 36  1
 33 37  2
 35 38  2
 35 39  1
 36 40  2
 38 41  1
 39 42  1
 39 43  1
 10 12  1
 11 13  1
 23 26  1
 24 25  1
 30 34  1
 37 40  1
 41 42  2
M  END
> <COMPOUND_NAMES>
Example 662a (R) (Page No: 747)

> <Reference>
WO2019148005

> <IC50_range_nM>
<100

> <smiles>
Cn1cnnc1CC1(COC1)c1cccc(c1)N1Cc2c(cc(CN3CC[C@@H](C3)c3ccccc3)cc2C(F)(F)F)C1=O

$$$$
C33H32F3N5O2
  MOLSOFT 03092310482D

 43 49  0  0  1  0  0  0  0  0999 V2000
    0.0000   -0.0000    0.0000 F   0  0  0
    1.1052    1.0112    0.0000 C   0  0  0
    2.0929   -0.0941    0.0000 F   0  0  0
    2.2105    2.0223    0.0000 F   0  0  0
    0.0941    2.1399    0.0000 C   0  0  0
   -1.3874    1.8342    0.0000 C   0  0  0
    0.5409    3.5744    0.0000 C   0  0  0
   -2.3986    2.9630    0.0000 C   0  0  0
   -2.1517    0.5409    0.0000 C   0  0  0
   -0.4703    4.7031    0.0000 C   0  0  0
   -3.7860    2.3633    0.0000 C   0  0  0
   -1.9518    4.3974    0.0000 C   0  0  0
   -3.6332    0.8701    0.0000 N   0  0  0
   -0.0235    6.1376    0.0000 C   0  0  0
   -5.1029    3.1276    0.0000 O   0  0  0
   -4.7619   -0.1176    0.0000 C   0  0  0
    1.4345    6.4668    0.0000 N   0  0  0
   -4.4562   -1.5756    0.0000 C   0  0  0
   -6.1964    0.3527    0.0000 C   0  0  0
    2.5397    5.4792    0.0000 C   0  0  0
    2.0341    7.8542    0.0000 C   0  0  0
   -5.5850   -2.5632    0.0000 C   0  0  0
   -7.3251   -0.6349    0.0000 C   0  0  0
    3.8213    6.2434    0.0000 C   0  0  1
    3.5156    7.7131    0.0000 C   0  0  0
   -7.0194   -2.0929    0.0000 C   0  0  0
   -5.2793   -4.0212    0.0000 C   0  0  0
    5.1852    5.6438    0.0000 C   0  0  0
   -4.0329   -4.8325    0.0000 C   0  0  0
   -6.1141   -5.2675    0.0000 C   0  0  0
   -6.7137   -3.5509    0.0000 C   0  0  0
    6.3845    6.5374    0.0000 C   0  0  0
    5.3263    4.1623    0.0000 C   0  0  0
   -4.8677   -6.0788    0.0000 O   0  0  0
   -7.8425   -4.5385    0.0000 C   0  0  0
    7.7484    5.9377    0.0000 C   0  0  0
    6.6902    3.5626    0.0000 C   0  0  0
   -9.3240   -4.2093    0.0000 N   0  0  0
   -7.7014   -6.0200    0.0000 N   0  0  0
    7.8895    4.4562    0.0000 C   0  0  0
  -10.0882   -5.5027    0.0000 N   0  0  0
   -9.0888   -6.6197    0.0000 C   0  0  0
   -6.4080   -6.7608    0.0000 C   0  0  0
  1  2  1
  2  3  1
  2  4  1
  2  5  1
  5  6  2
  5  7  1
  6  8  1
  6  9  1
  7 10  2
  8 11  1
  8 12  2
  9 13  1
 10 14  1
 11 15  2
 13 16  1
 14 17  1
 16 18  2
 16 19  1
 17 20  1
 17 21  1
 18 22  1
 19 23  2
 24 20  1
 21 25  1
 22 26  2
 22 27  1
 24 28  1  1  0
 27 29  1
 27 30  1
 27 31  1
 28 32  2
 28 33  1
 29 34  1
 31 35  1
 32 36  1
 33 37  2
 35 38  2
 35 39  1
 36 40  2
 38 41  1
 39 42  1
 39 43  1
 10 12  1
 11 13  1
 23 26  1
 24 25  1
 30 34  1
 37 40  1
 41 42  2
M  END
> <COMPOUND_NAMES>
Example 662b (S) (Page No: 747)

> <Reference>
WO2019148005

> <IC50_range_nM>
<100

> <smiles>
Cn1cnnc1CC1(COC1)c1cccc(c1)N1Cc2c(cc(CN3CC[C@H](C3)c3ccccc3)cc2C(F)(F)F)C1=O

$$$$
C28H29F4N5O2
  MOLSOFT 03092310482D

 39 44  0  0  0  0  0  0  0  0999 V2000
    0.0000   -0.0000    0.0000 F   0  0  0
    1.1033    1.0094    0.0000 C   0  0  0
    2.1009   -0.0939    0.0000 F   0  0  0
    2.2065    2.0305    0.0000 F   0  0  0
    0.0822    2.1361    0.0000 C   0  0  0
   -1.3967    1.8310    0.0000 C   0  0  0
    0.5282    3.5680    0.0000 C   0  0  0
   -2.4178    2.9577    0.0000 C   0  0  0
   -2.1596    0.5399    0.0000 C   0  0  0
   -0.4929    4.6948    0.0000 C   0  0  0
   -3.8028    2.3591    0.0000 C   0  0  0
   -1.9718    4.3896    0.0000 C   0  0  0
   -3.6384    0.8685    0.0000 N   0  0  0
   -0.0469    6.1267    0.0000 C   0  0  0
   -5.1173    3.1220    0.0000 O   0  0  0
   -4.7652   -0.1291    0.0000 C   0  0  0
    1.4084    6.4553    0.0000 N   0  0  0
   -4.4600   -1.5845    0.0000 C   0  0  0
   -6.1971    0.3404    0.0000 C   0  0  0
    1.8544    7.8872    0.0000 C   0  0  0
    2.4061    5.3520    0.0000 C   0  0  0
   -5.5868   -2.5704    0.0000 C   0  0  0
   -7.3238   -0.6573    0.0000 C   0  0  0
    3.3098    8.2158    0.0000 C   0  0  0
    3.8614    5.6807    0.0000 C   0  0  0
   -7.0304   -2.1009    0.0000 C   0  0  0
   -5.2816   -4.0258    0.0000 C   0  0  0
    4.3074    7.1126    0.0000 C   0  0  0
   -4.0375   -4.8356    0.0000 C   0  0  0
   -6.1149   -5.2699    0.0000 C   0  0  0
   -6.7135   -3.5563    0.0000 C   0  0  0
    5.7628    7.4412    0.0000 F   0  0  0
   -4.8708   -6.0797    0.0000 O   0  0  0
   -7.8402   -4.5539    0.0000 C   0  0  0
   -9.3191   -4.2253    0.0000 N   0  0  0
   -7.6994   -6.0328    0.0000 N   0  0  0
  -10.0820   -5.5163    0.0000 N   0  0  0
   -9.0844   -6.6313    0.0000 C   0  0  0
   -6.4083   -6.7722    0.0000 C   0  0  0
  1  2  1
  2  3  1
  2  4  1
  2  5  1
  5  6  2
  5  7  1
  6  8  1
  6  9  1
  7 10  2
  8 11  1
  8 12  2
  9 13  1
 10 14  1
 11 15  2
 13 16  1
 14 17  1
 16 18  2
 16 19  1
 17 20  1
 17 21  1
 18 22  1
 19 23  2
 20 24  1
 21 25  1
 22 26  2
 22 27  1
 24 28  1
 27 29  1
 27 30  1
 27 31  1
 28 32  1
 29 33  1
 31 34  1
 34 35  2
 34 36  1
 35 37  1
 36 38  1
 36 39  1
 10 12  1
 11 13  1
 23 26  1
 25 28  1
 30 33  1
 37 38  2
M  END
> <COMPOUND_NAMES>
Example 489 (Page No: 639)

> <Reference>
WO2019148005

> <IC50_range_nM>
<100

> <smiles>
Cn1cnnc1CC1(COC1)c1cccc(c1)N1Cc2c(cc(CN3CCC(CC3)F)cc2C(F)(F)F)C1=O

$$$$
C29H31F4N5O2
  MOLSOFT 03092310482D

 40 45  0  0  0  0  0  0  0  0999 V2000
    0.0000   -0.0000    0.0000 F   0  0  0
   -1.1297   -0.9884    0.0000 C   0  0  0
   -2.1416    0.1412    0.0000 C   0  0  0
   -1.6003   -2.4005    0.0000 C   0  0  0
    0.2824   -1.4356    0.0000 C   0  0  0
   -3.6243   -0.1647    0.0000 C   0  0  0
   -3.0830   -2.7065    0.0000 C   0  0  0
   -4.0950   -1.5768    0.0000 N   0  0  0
   -5.5777   -1.8828    0.0000 C   0  0  0
   -6.0484   -3.2948    0.0000 C   0  0  0
   -5.0599   -4.4010    0.0000 C   0  0  0
   -7.5310   -3.6008    0.0000 C   0  0  0
   -5.5306   -5.8130    0.0000 C   0  0  0
   -8.0017   -5.0129    0.0000 C   0  0  0
   -7.0133   -6.1190    0.0000 C   0  0  0
   -4.5422   -6.9191    0.0000 C   0  0  0
   -9.3903   -5.6130    0.0000 C   0  0  0
   -7.7782   -7.4134    0.0000 C   0  0  0
   -5.6718   -7.9076    0.0000 F   0  0  0
   -3.5537   -8.0253    0.0000 F   0  0  0
   -3.4360   -5.9072    0.0000 F   0  0  0
  -10.7082   -4.8481    0.0000 O   0  0  0
   -9.2491   -7.0957    0.0000 N   0  0  0
  -10.3787   -8.0841    0.0000 C   0  0  0
  -10.0728   -9.5432    0.0000 C   0  0  0
  -11.8143   -7.6134    0.0000 C   0  0  0
  -11.2024  -10.5317    0.0000 C   0  0  0
  -12.9440   -8.6019    0.0000 C   0  0  0
  -12.6380  -10.0610    0.0000 C   0  0  0
  -10.8965  -11.9908    0.0000 C   0  0  0
   -9.6492  -12.8028    0.0000 C   0  0  0
  -11.7320  -13.2382    0.0000 C   0  0  0
  -12.3321  -11.5201    0.0000 C   0  0  0
  -10.4846  -14.0501    0.0000 O   0  0  0
  -13.4617  -12.5086    0.0000 C   0  0  0
  -14.9444  -12.1791    0.0000 N   0  0  0
  -13.3205  -13.9913    0.0000 N   0  0  0
  -15.7093  -13.4735    0.0000 N   0  0  0
  -14.7091  -14.5914    0.0000 C   0  0  0
  -12.0261  -14.7326    0.0000 C   0  0  0
  1  2  1
  2  3  1
  2  4  1
  2  5  1
  3  6  1
  4  7  1
  6  8  1
  8  9  1
  9 10  1
 10 11  2
 10 12  1
 11 13  1
 12 14  2
 13 15  2
 13 16  1
 14 17  1
 15 18  1
 16 19  1
 16 20  1
 16 21  1
 17 22  2
 17 23  1
 23 24  1
 24 25  2
 24 26  1
 25 27  1
 26 28  2
 27 29  2
 27 30  1
 30 31  1
 30 32  1
 30 33  1
 31 34  1
 33 35  1
 35 36  2
 35 37  1
 36 38  1
 37 39  1
 37 40  1
  7  8  1
 14 15  1
 18 23  1
 28 29  1
 32 34  1
 38 39  2
M  END
> <COMPOUND_NAMES>
Example 620 (Page No: 727)

> <Reference>
WO2019148005

> <IC50_range_nM>
<100

> <smiles>
CC1(CCN(CC1)Cc1cc2C(N(Cc2c(c1)C(F)(F)F)c1cccc(c1)C1(Cc2nncn2C)COC1)=O)F

$$$$
C30H33F4N5O2
  MOLSOFT 03092310482D

 41 46  0  0  1  0  0  0  0  0999 V2000
    0.0000   -0.0000    0.0000 F   0  0  0
   -0.7532   -1.2828    0.0000 C   0  0  0
   -2.0596   -0.5296    0.0000 C   0  0  0
   -0.7650   -2.7657    0.0000 C   0  0  0
    0.7297   -1.2711    0.0000 C   0  0  0
   -3.3660   -1.2593    0.0000 C   0  0  0
   -2.0714   -3.4954    0.0000 C   0  0  0
   -3.3777   -2.7422    0.0000 N   0  0  0
   -4.6841   -3.4719    0.0000 C   0  0  2
   -5.9905   -2.7187    0.0000 C   0  0  0
   -4.6959   -4.9548    0.0000 C   0  0  0
   -6.0022   -1.2122    0.0000 C   0  0  0
   -7.2968   -3.4483    0.0000 C   0  0  0
   -7.3086   -0.4590    0.0000 C   0  0  0
   -8.6032   -2.6951    0.0000 C   0  0  0
   -8.6150   -1.1887    0.0000 C   0  0  0
   -7.3204    1.0474    0.0000 C   0  0  0
  -10.0390   -3.1423    0.0000 C   0  0  0
  -10.0508   -0.7179    0.0000 C   0  0  0
   -7.3321    2.5539    0.0000 F   0  0  0
   -5.8375    1.0592    0.0000 F   0  0  0
   -8.8268    1.0592    0.0000 F   0  0  0
  -10.5098   -4.5546    0.0000 O   0  0  0
  -10.9335   -1.9184    0.0000 N   0  0  0
  -12.4399   -1.9066    0.0000 C   0  0  0
  -13.1932   -3.1894    0.0000 C   0  0  0
  -13.1932   -0.6002    0.0000 C   0  0  0
  -14.6996   -3.1777    0.0000 C   0  0  0
  -14.6996   -0.5885    0.0000 C   0  0  0
  -15.4528   -1.8713    0.0000 C   0  0  0
  -15.4528   -4.4605    0.0000 C   0  0  0
  -15.0762   -5.8963    0.0000 C   0  0  0
  -16.9122   -4.8371    0.0000 C   0  0  0
  -16.2060   -3.1541    0.0000 C   0  0  0
  -16.5356   -6.2729    0.0000 O   0  0  0
  -17.7125   -3.1423    0.0000 C   0  0  0
  -18.6069   -4.3428    0.0000 N   0  0  0
  -18.6069   -1.9184    0.0000 N   0  0  0
  -20.0428   -3.8720    0.0000 N   0  0  0
  -20.0428   -2.3656    0.0000 C   0  0  0
  -18.1597   -0.4825    0.0000 C   0  0  0
  1  2  1
  2  3  1
  2  4  1
  2  5  1
  3  6  1
  4  7  1
  6  8  1
  9  8  1  1  0
  9 10  1
  9 11  1
 10 12  2
 10 13  1
 12 14  1
 13 15  2
 14 16  2
 14 17  1
 15 18  1
 16 19  1
 17 20  1
 17 21  1
 17 22  1
 18 23  2
 18 24  1
 24 25  1
 25 26  2
 25 27  1
 26 28  1
 27 29  2
 28 30  2
 28 31  1
 31 32  1
 31 33  1
 31 34  1
 32 35  1
 34 36  1
 36 37  2
 36 38  1
 37 39  1
 38 40  1
 38 41  1
  7  8  1
 15 16  1
 19 24  1
 29 30  1
 33 35  1
 39 40  2
M  END
> <COMPOUND_NAMES>
Example 553a (S) (Page No: 687)

> <Reference>
WO2019148005

> <IC50_range_nM>
<100

> <smiles>
C[C@@H](c1cc2C(N(Cc2c(c1)C(F)(F)F)c1cccc(c1)C1(Cc2nncn2C)COC1)=O)N1CCC(C)(CC1)F

$$$$
C30H33F4N5O2
  MOLSOFT 03092310482D

 41 46  0  0  1  0  0  0  0  0999 V2000
    0.0000   -0.0000    0.0000 F   0  0  0
   -0.7532   -1.2828    0.0000 C   0  0  0
   -2.0596   -0.5296    0.0000 C   0  0  0
   -0.7650   -2.7657    0.0000 C   0  0  0
    0.7297   -1.2711    0.0000 C   0  0  0
   -3.3660   -1.2593    0.0000 C   0  0  0
   -2.0714   -3.4954    0.0000 C   0  0  0
   -3.3777   -2.7422    0.0000 N   0  0  0
   -4.6841   -3.4719    0.0000 C   0  0  1
   -5.9905   -2.7187    0.0000 C   0  0  0
   -4.6959   -4.9548    0.0000 C   0  0  0
   -6.0022   -1.2122    0.0000 C   0  0  0
   -7.2968   -3.4483    0.0000 C   0  0  0
   -7.3086   -0.4590    0.0000 C   0  0  0
   -8.6032   -2.6951    0.0000 C   0  0  0
   -8.6150   -1.1887    0.0000 C   0  0  0
   -7.3204    1.0474    0.0000 C   0  0  0
  -10.0390   -3.1423    0.0000 C   0  0  0
  -10.0508   -0.7179    0.0000 C   0  0  0
   -7.3321    2.5539    0.0000 F   0  0  0
   -5.8375    1.0592    0.0000 F   0  0  0
   -8.8268    1.0592    0.0000 F   0  0  0
  -10.5098   -4.5546    0.0000 O   0  0  0
  -10.9335   -1.9184    0.0000 N   0  0  0
  -12.4399   -1.9066    0.0000 C   0  0  0
  -13.1932   -3.1894    0.0000 C   0  0  0
  -13.1932   -0.6002    0.0000 C   0  0  0
  -14.6996   -3.1777    0.0000 C   0  0  0
  -14.6996   -0.5885    0.0000 C   0  0  0
  -15.4528   -1.8713    0.0000 C   0  0  0
  -15.4528   -4.4605    0.0000 C   0  0  0
  -15.0762   -5.8963    0.0000 C   0  0  0
  -16.9122   -4.8371    0.0000 C   0  0  0
  -16.2060   -3.1541    0.0000 C   0  0  0
  -16.5356   -6.2729    0.0000 O   0  0  0
  -17.7125   -3.1423    0.0000 C   0  0  0
  -18.6069   -4.3428    0.0000 N   0  0  0
  -18.6069   -1.9184    0.0000 N   0  0  0
  -20.0428   -3.8720    0.0000 N   0  0  0
  -20.0428   -2.3656    0.0000 C   0  0  0
  -18.1597   -0.4825    0.0000 C   0  0  0
  1  2  1
  2  3  1
  2  4  1
  2  5  1
  3  6  1
  4  7  1
  6  8  1
  9  8  1  6  0
  9 10  1
  9 11  1
 10 12  2
 10 13  1
 12 14  1
 13 15  2
 14 16  2
 14 17  1
 15 18  1
 16 19  1
 17 20  1
 17 21  1
 17 22  1
 18 23  2
 18 24  1
 24 25  1
 25 26  2
 25 27  1
 26 28  1
 27 29  2
 28 30  2
 28 31  1
 31 32  1
 31 33  1
 31 34  1
 32 35  1
 34 36  1
 36 37  2
 36 38  1
 37 39  1
 38 40  1
 38 41  1
  7  8  1
 15 16  1
 19 24  1
 29 30  1
 33 35  1
 39 40  2
M  END
> <COMPOUND_NAMES>
Example 553b (R) (Page No: 687)

> <Reference>
WO2019148005

> <IC50_range_nM>
<100

> <smiles>
C[C@H](c1cc2C(N(Cc2c(c1)C(F)(F)F)c1cccc(c1)C1(Cc2nncn2C)COC1)=O)N1CCC(C)(CC1)F

$$$$
C28H28F5N5O2
  MOLSOFT 03092310482D

 40 45  0  0  0  0  0  0  0  0999 V2000
    0.0000   -0.0000    0.0000 F   0  0  0
   -1.4350    0.4705    0.0000 C   0  0  0
   -0.3293    1.4821    0.0000 F   0  0  0
   -2.4466    1.5997    0.0000 C   0  0  0
   -1.9055   -0.9410    0.0000 C   0  0  0
   -3.9286    1.2939    0.0000 C   0  0  0
   -3.3876   -1.2468    0.0000 C   0  0  0
   -4.3991   -0.1176    0.0000 N   0  0  0
   -5.8812   -0.4234    0.0000 C   0  0  0
   -6.3517   -1.8349    0.0000 C   0  0  0
   -5.3637   -2.9406    0.0000 C   0  0  0
   -7.8338   -2.1408    0.0000 C   0  0  0
   -5.8342   -4.3521    0.0000 C   0  0  0
   -8.3043   -3.5523    0.0000 C   0  0  0
   -7.3162   -4.6579    0.0000 C   0  0  0
   -4.8461   -5.4578    0.0000 C   0  0  0
   -9.6922   -4.1521    0.0000 C   0  0  0
   -8.0808   -5.9518    0.0000 C   0  0  0
   -5.9753   -6.4458    0.0000 F   0  0  0
   -3.8581   -6.5634    0.0000 F   0  0  0
   -3.7404   -4.4462    0.0000 F   0  0  0
  -11.0096   -3.3876    0.0000 O   0  0  0
   -9.5511   -5.6342    0.0000 N   0  0  0
  -10.6803   -6.6222    0.0000 C   0  0  0
  -10.3745   -8.0808    0.0000 C   0  0  0
  -12.1153   -6.1517    0.0000 C   0  0  0
  -11.5036   -9.0688    0.0000 C   0  0  0
  -13.2445   -7.1398    0.0000 C   0  0  0
  -12.9387   -8.5983    0.0000 C   0  0  0
  -11.1978  -10.5274    0.0000 C   0  0  0
   -9.9510  -11.3390    0.0000 C   0  0  0
  -12.0330  -11.7742    0.0000 C   0  0  0
  -12.6328  -10.0569    0.0000 C   0  0  0
  -10.7861  -12.5858    0.0000 O   0  0  0
  -13.7620  -11.0449    0.0000 C   0  0  0
  -15.2441  -10.7156    0.0000 N   0  0  0
  -13.6209  -12.5270    0.0000 N   0  0  0
  -16.0087  -12.0094    0.0000 N   0  0  0
  -15.0088  -13.1269    0.0000 C   0  0  0
  -12.3270  -13.2680    0.0000 C   0  0  0
  1  2  1
  2  3  1
  2  4  1
  2  5  1
  4  6  1
  5  7  1
  6  8  1
  8  9  1
  9 10  1
 10 11  2
 10 12  1
 11 13  1
 12 14  2
 13 15  2
 13 16  1
 14 17  1
 15 18  1
 16 19  1
 16 20  1
 16 21  1
 17 22  2
 17 23  1
 23 24  1
 24 25  2
 24 26  1
 25 27  1
 26 28  2
 27 29  2
 27 30  1
 30 31  1
 30 32  1
 30 33  1
 31 34  1
 33 35  1
 35 36  2
 35 37  1
 36 38  1
 37 39  1
 37 40  1
  7  8  1
 14 15  1
 18 23  1
 28 29  1
 32 34  1
 38 39  2
M  END
> <COMPOUND_NAMES>
Example 633 (Page No: 734)

> <Reference>
WO2019148005

> <IC50_range_nM>
<100

> <smiles>
Cn1cnnc1CC1(COC1)c1cccc(c1)N1Cc2c(cc(CN3CCC(CC3)(F)F)cc2C(F)(F)F)C1=O

$$$$
C29H30F5N5O2
  MOLSOFT 03092310482D

 41 46  0  0  0  0  0  0  0  0999 V2000
    0.0000   -0.0000    0.0000 F   0  0  0
   -1.0993    1.0520    0.0000 C   0  0  0
    0.3310    1.4893    0.0000 F   0  0  0
   -2.0685   -0.0946    0.0000 C   0  0  0
   -1.4184    2.5295    0.0000 C   0  0  0
   -3.5814   -0.0591    0.0000 C   0  0  0
   -2.7777    3.2150    0.0000 C   0  0  0
   -4.5152    1.1465    0.0000 N   0  0  0
   -4.1488    2.6004    0.0000 C   0  0  0
   -5.9927    0.8510    0.0000 C   0  0  0
   -6.4655   -0.5674    0.0000 C   0  0  0
   -5.4726   -1.6666    0.0000 C   0  0  0
   -7.9430   -0.8629    0.0000 C   0  0  0
   -5.9454   -3.0850    0.0000 C   0  0  0
   -8.4158   -2.2813    0.0000 C   0  0  0
   -7.4229   -3.3805    0.0000 C   0  0  0
   -4.9526   -4.1843    0.0000 C   0  0  0
   -9.7987   -2.8841    0.0000 C   0  0  0
   -8.1912   -4.6689    0.0000 C   0  0  0
   -6.0755   -5.1771    0.0000 F   0  0  0
   -3.9597   -5.2835    0.0000 F   0  0  0
   -3.8533   -3.1677    0.0000 F   0  0  0
  -11.1108   -2.1158    0.0000 O   0  0  0
   -9.6569   -4.3616    0.0000 N   0  0  0
  -10.7798   -5.3544    0.0000 C   0  0  0
  -10.4843   -6.8083    0.0000 C   0  0  0
  -12.2218   -4.8816    0.0000 C   0  0  0
  -11.6072   -7.8012    0.0000 C   0  0  0
  -13.3447   -5.8745    0.0000 C   0  0  0
  -13.0492   -7.3284    0.0000 C   0  0  0
  -11.3117   -9.2550    0.0000 C   0  0  0
  -10.0588  -10.0588    0.0000 C   0  0  0
  -12.1391  -10.5079    0.0000 C   0  0  0
  -12.7537   -8.7822    0.0000 C   0  0  0
  -10.8862  -11.3117    0.0000 O   0  0  0
  -13.8766   -9.7751    0.0000 C   0  0  0
  -15.3541   -9.4560    0.0000 N   0  0  0
  -13.7348  -11.2526    0.0000 N   0  0  0
  -16.1224  -10.7443    0.0000 N   0  0  0
  -15.1177  -11.8554    0.0000 C   0  0  0
  -12.4464  -11.9973    0.0000 C   0  0  0
  1  2  1
  2  3  1
  2  4  1
  2  5  1
  4  6  1
  5  7  1
  6  8  1
  7  9  1
  8 10  1
 10 11  1
 11 12  2
 11 13  1
 12 14  1
 13 15  2
 14 16  2
 14 17  1
 15 18  1
 16 19  1
 17 20  1
 17 21  1
 17 22  1
 18 23  2
 18 24  1
 24 25  1
 25 26  2
 25 27  1
 26 28  1
 27 29  2
 28 30  2
 28 31  1
 31 32  1
 31 33  1
 31 34  1
 32 35  1
 34 36  1
 36 37  2
 36 38  1
 37 39  1
 38 40  1
 38 41  1
  8  9  1
 15 16  1
 19 24  1
 29 30  1
 33 35  1
 39 40  2
M  END
> <COMPOUND_NAMES>
Example 528 (Page No: 667)

> <Reference>
WO2019148005

> <IC50_range_nM>
<100

> <smiles>
Cn1cnnc1CC1(COC1)c1cccc(c1)N1Cc2c(cc(CN3CCCC(CC3)(F)F)cc2C(F)(F)F)C1=O

$$$$
C28H28F5N5O3
  MOLSOFT 03092310482D

 41 46  0  0  0  0  0  0  0  0999 V2000
    0.0000   -0.0000    0.0000 F   0  0  0
   -1.4354    0.4706    0.0000 C   0  0  0
   -0.3294    1.4824    0.0000 F   0  0  0
   -1.9060   -0.9412    0.0000 C   0  0  3
   -2.4472    1.6001    0.0000 C   0  0  0
   -0.9177   -2.0472    0.0000 O   0  0  0
   -3.3884   -1.2471    0.0000 C   0  0  0
   -3.9296    1.2942    0.0000 C   0  0  0
   -4.4002   -0.1177    0.0000 N   0  0  0
   -5.8827   -0.4236    0.0000 C   0  0  0
   -6.3533   -1.8354    0.0000 C   0  0  0
   -5.3650   -2.9413    0.0000 C   0  0  0
   -7.8357   -2.1413    0.0000 C   0  0  0
   -5.8356   -4.3532    0.0000 C   0  0  0
   -8.3063   -3.5531    0.0000 C   0  0  0
   -7.3180   -4.6591    0.0000 C   0  0  0
   -4.8473   -5.4591    0.0000 C   0  0  0
   -9.6946   -4.1532    0.0000 C   0  0  0
   -8.0828   -5.9533    0.0000 C   0  0  0
   -5.9768   -6.4474    0.0000 F   0  0  0
   -3.8590   -6.5651    0.0000 F   0  0  0
   -3.7414   -4.4473    0.0000 F   0  0  0
  -11.0124   -3.3884    0.0000 O   0  0  0
   -9.5535   -5.6356    0.0000 N   0  0  0
  -10.6829   -6.6239    0.0000 C   0  0  0
  -10.3770   -8.0828    0.0000 C   0  0  0
  -12.1183   -6.1533    0.0000 C   0  0  0
  -11.5065   -9.0711    0.0000 C   0  0  0
  -13.2478   -7.1416    0.0000 C   0  0  0
  -12.9419   -8.6005    0.0000 C   0  0  0
  -11.2006  -10.5300    0.0000 C   0  0  0
   -9.9535  -11.3418    0.0000 C   0  0  0
  -12.0360  -11.7771    0.0000 C   0  0  0
  -12.6360  -10.0594    0.0000 C   0  0  0
  -10.7888  -12.5889    0.0000 O   0  0  0
  -13.7655  -11.0477    0.0000 C   0  0  0
  -15.2479  -10.7182    0.0000 N   0  0  0
  -13.6243  -12.5301    0.0000 N   0  0  0
  -16.0126  -12.0124    0.0000 N   0  0  0
  -15.0126  -13.1301    0.0000 C   0  0  0
  -12.3301  -13.2713    0.0000 C   0  0  0
  1  2  1
  2  3  1
  4  2  1
  2  5  1
  4  6  1
  4  7  1
  5  8  1
  7  9  1
  9 10  1
 10 11  1
 11 12  2
 11 13  1
 12 14  1
 13 15  2
 14 16  2
 14 17  1
 15 18  1
 16 19  1
 17 20  1
 17 21  1
 17 22  1
 18 23  2
 18 24  1
 24 25  1
 25 26  2
 25 27  1
 26 28  1
 27 29  2
 28 30  2
 28 31  1
 31 32  1
 31 33  1
 31 34  1
 32 35  1
 34 36  1
 36 37  2
 36 38  1
 37 39  1
 38 40  1
 38 41  1
  8  9  1
 15 16  1
 19 24  1
 29 30  1
 33 35  1
 39 40  2
M  END
> <COMPOUND_NAMES>
Example 647 (+/-) (Page No: 741)

> <Reference>
WO2019148005

> <IC50_range_nM>
<100

> <smiles>
Cn1cnnc1CC1(COC1)c1cccc(c1)N1Cc2c(cc(CN3CCC(C(C3)O)(F)F)cc2C(F)(F)F)C1=O

$$$$
C29H29F6N5O2
  MOLSOFT 03092310482D

 42 47  0  0  0  0  0  0  0  0999 V2000
    0.0000   -0.0000    0.0000 F   0  0  0
    1.2058   -0.8748    0.0000 C   0  0  0
    0.3074   -2.0806    0.0000 F   0  0  0
    2.4116   -1.7496    0.0000 F   0  0  0
    2.0806    0.3546    0.0000 C   0  0  0
    3.5583    0.2128    0.0000 C   0  0  0
    1.4541    1.7378    0.0000 C   0  0  0
    4.4331    1.4422    0.0000 C   0  0  0
    4.4331   -0.9930    0.0000 C   0  0  0
    2.3289    2.9672    0.0000 C   0  0  0
    5.8517    0.9930    0.0000 C   0  0  0
    3.8066    2.8254    0.0000 C   0  0  0
    5.8517   -0.5202    0.0000 N   0  0  0
    1.7023    4.3504    0.0000 C   0  0  0
    7.0575    1.8915    0.0000 O   0  0  0
    7.0575   -1.3950    0.0000 C   0  0  0
    2.5771    5.5798    0.0000 N   0  0  0
    8.4170   -0.7684    0.0000 C   0  0  0
    6.8920   -2.8727    0.0000 C   0  0  0
    2.1043    7.0221    0.0000 C   0  0  3
    4.0666    5.5916    0.0000 C   0  0  0
    9.6228   -1.6432    0.0000 C   0  0  0
    8.0978   -3.7475    0.0000 C   0  0  0
    3.3101    7.9205    0.0000 C   0  0  3
    0.6620    7.4949    0.0000 C   0  0  0
    4.5159    7.0339    0.0000 C   0  0  0
    9.4573   -3.1209    0.0000 C   0  0  0
   10.9823   -1.0167    0.0000 C   0  0  0
    3.2982    9.4337    0.0000 C   0  0  0
   11.5143    0.4019    0.0000 C   0  0  0
   12.3773   -1.5486    0.0000 C   0  0  0
   10.8168   -2.4944    0.0000 C   0  0  0
    3.2864   10.9468    0.0000 F   0  0  0
    4.7878    9.4455    0.0000 F   0  0  0
    1.7851    9.4455    0.0000 F   0  0  0
   12.9092   -0.1182    0.0000 O   0  0  0
   12.0226   -3.3692    0.0000 C   0  0  0
   13.4412   -2.8963    0.0000 N   0  0  0
   12.0108   -4.8587    0.0000 N   0  0  0
   14.3160   -4.1021    0.0000 N   0  0  0
   13.4294   -5.3079    0.0000 C   0  0  0
   10.7813   -5.7335    0.0000 C   0  0  0
  1  2  1
  2  3  1
  2  4  1
  2  5  1
  5  6  2
  5  7  1
  6  8  1
  6  9  1
  7 10  2
  8 11  1
  8 12  2
  9 13  1
 10 14  1
 11 15  2
 13 16  1
 14 17  1
 16 18  2
 16 19  1
 20 17  1
 17 21  1
 18 22  1
 19 23  2
 20 24  1
 20 25  1
 21 26  1
 22 27  2
 22 28  1
 24 29  1
 28 30  1
 28 31  1
 28 32  1
 29 33  1
 29 34  1
 29 35  1
 30 36  1
 32 37  1
 37 38  2
 37 39  1
 38 40  1
 39 41  1
 39 42  1
 10 12  1
 11 13  1
 23 27  1
 24 26  1
 31 36  1
 40 41  2
M  END
> <COMPOUND_NAMES>
Example 588 (+/-) (Page No: 709)

> <Reference>
WO2019148005

> <IC50_range_nM>
<100

> <smiles>
CC1C(CCN1Cc1cc2C(N(Cc2c(c1)C(F)(F)F)c1cccc(c1)C1(Cc2nncn2C)COC1)=O)C(F)(F)F

$$$$
C27H25F3N6O2
  MOLSOFT 03092310482D

 38 43  0  0  0  0  0  0  0  0999 V2000
    0.0000   -0.0000    0.0000 F   0  0  0
    1.1031    1.0092    0.0000 C   0  0  0
    2.1005   -0.0939    0.0000 F   0  0  0
    2.2062    2.0301    0.0000 F   0  0  0
    0.0821    2.1358    0.0000 C   0  0  0
   -1.3965    1.8306    0.0000 C   0  0  0
    0.5281    3.5674    0.0000 C   0  0  0
   -2.4174    2.9572    0.0000 C   0  0  0
   -2.1592    0.5398    0.0000 C   0  0  0
   -0.4929    4.6940    0.0000 C   0  0  0
   -3.8021    2.3587    0.0000 C   0  0  0
   -1.9715    4.3889    0.0000 C   0  0  0
   -3.6378    0.8684    0.0000 N   0  0  0
   -0.0469    6.1256    0.0000 C   0  0  0
   -5.1164    3.1215    0.0000 O   0  0  0
   -4.7644   -0.1291    0.0000 C   0  0  0
    1.4082    6.4542    0.0000 N   0  0  0
   -4.4593   -1.5842    0.0000 C   0  0  0
   -6.1960    0.3403    0.0000 C   0  0  0
    2.2179    7.7216    0.0000 C   0  0  0
    2.6521    5.6445    0.0000 C   0  0  0
   -5.5858   -2.5699    0.0000 C   0  0  0
   -7.3226   -0.6572    0.0000 C   0  0  0
    3.4618    6.9119    0.0000 C   0  0  0
   -7.0292   -2.1005    0.0000 C   0  0  0
   -5.2807   -4.0251    0.0000 C   0  0  0
    4.9169    7.2404    0.0000 C   0  0  0
   -4.0368   -4.8348    0.0000 C   0  0  0
   -6.1139   -5.2690    0.0000 C   0  0  0
   -6.7124   -3.5557    0.0000 C   0  0  0
    6.3721    7.5690    0.0000 N   0  0  0
   -4.8700   -6.0787    0.0000 O   0  0  0
   -7.8389   -4.5531    0.0000 C   0  0  0
   -9.3175   -4.2246    0.0000 N   0  0  0
   -7.6981   -6.0317    0.0000 N   0  0  0
  -10.0803   -5.5154    0.0000 N   0  0  0
   -9.0828   -6.6302    0.0000 C   0  0  0
   -6.4073   -6.7710    0.0000 C   0  0  0
  1  2  1
  2  3  1
  2  4  1
  2  5  1
  5  6  2
  5  7  1
  6  8  1
  6  9  1
  7 10  2
  8 11  1
  8 12  2
  9 13  1
 10 14  1
 11 15  2
 13 16  1
 14 17  1
 16 18  2
 16 19  1
 17 20  1
 17 21  1
 18 22  1
 19 23  2
 20 24  1
 22 25  2
 22 26  1
 24 27  1
 26 28  1
 26 29  1
 26 30  1
 27 31  3
 28 32  1
 30 33  1
 33 34  2
 33 35  1
 34 36  1
 35 37  1
 35 38  1
 10 12  1
 11 13  1
 21 24  1
 23 25  1
 29 32  1
 36 37  2
M  END
> <COMPOUND_NAMES>
Example 423 (Page No: 584)

> <Reference>
WO2019148005

> <IC50_range_nM>
<100

> <smiles>
Cn1cnnc1CC1(COC1)c1cccc(c1)N1Cc2c(cc(CN3CC(C3)C#N)cc2C(F)(F)F)C1=O

$$$$
C28H27F3N6O2
  MOLSOFT 03092310482D

 39 44  0  0  0  0  0  0  0  0999 V2000
    0.0000   -0.0000    0.0000 F   0  0  0
    1.1037    1.0097    0.0000 C   0  0  0
    2.1016   -0.0939    0.0000 F   0  0  0
    2.2073    2.0312    0.0000 F   0  0  0
    0.0822    2.1369    0.0000 C   0  0  0
   -1.3972    1.8316    0.0000 C   0  0  0
    0.5283    3.5693    0.0000 C   0  0  0
   -2.4186    2.9587    0.0000 C   0  0  0
   -2.1603    0.5401    0.0000 C   0  0  0
   -0.4931    4.6964    0.0000 C   0  0  0
   -3.8041    2.3599    0.0000 C   0  0  0
   -1.9725    4.3911    0.0000 C   0  0  0
   -3.6397    0.8688    0.0000 N   0  0  0
   -0.0470    6.1288    0.0000 C   0  0  0
   -5.1191    3.1231    0.0000 O   0  0  0
   -4.7668   -0.1292    0.0000 C   0  0  0
    1.4089    6.4575    0.0000 N   0  0  0
   -4.4616   -1.5850    0.0000 C   0  0  0
   -6.1992    0.3405    0.0000 C   0  0  0
    2.2190    7.7256    0.0000 C   0  0  0
    2.6535    5.6474    0.0000 C   0  0  0
   -5.5887   -2.5713    0.0000 C   0  0  0
   -7.3264   -0.6575    0.0000 C   0  0  0
    3.4636    6.9154    0.0000 C   0  0  0
   -7.0329   -2.1016    0.0000 C   0  0  0
   -5.2834   -4.0272    0.0000 C   0  0  0
    4.8725    6.4693    0.0000 C   0  0  0
    4.5672    7.9252    0.0000 C   0  0  0
   -4.0389   -4.8373    0.0000 C   0  0  0
   -6.1171   -5.2717    0.0000 C   0  0  0
   -6.7158   -3.5575    0.0000 C   0  0  0
    6.2814    6.0231    0.0000 N   0  0  0
   -4.8725   -6.0818    0.0000 O   0  0  0
   -7.8430   -4.5555    0.0000 C   0  0  0
   -9.3223   -4.2268    0.0000 N   0  0  0
   -7.7021   -6.0349    0.0000 N   0  0  0
  -10.0855   -5.5183    0.0000 N   0  0  0
   -9.0875   -6.6337    0.0000 C   0  0  0
   -6.4106   -6.7746    0.0000 C   0  0  0
  1  2  1
  2  3  1
  2  4  1
  2  5  1
  5  6  2
  5  7  1
  6  8  1
  6  9  1
  7 10  2
  8 11  1
  8 12  2
  9 13  1
 10 14  1
 11 15  2
 13 16  1
 14 17  1
 16 18  2
 16 19  1
 17 20  1
 17 21  1
 18 22  1
 19 23  2
 20 24  1
 22 25  2
 22 26  1
 24 27  1
 24 28  1
 26 29  1
 26 30  1
 26 31  1
 27 32  3
 29 33  1
 31 34  1
 34 35  2
 34 36  1
 35 37  1
 36 38  1
 36 39  1
 10 12  1
 11 13  1
 21 24  1
 23 25  1
 30 33  1
 37 38  2
M  END
> <COMPOUND_NAMES>
Example 425 (Page No: 585)

> <Reference>
WO2019148005

> <IC50_range_nM>
<100

> <smiles>
CC1(CN(Cc2cc3C(N(Cc3c(c2)C(F)(F)F)c2cccc(c2)C2(Cc3nncn3C)COC2)=O)C1)C#N

$$$$
C28H27F3N6O2
  MOLSOFT 03092310482D

 39 44  0  0  1  0  0  0  0  0999 V2000
    0.0000   -0.0000    0.0000 F   0  0  0
    1.1045    1.0105    0.0000 C   0  0  0
    2.0915   -0.0940    0.0000 F   0  0  0
    2.2091    2.0210    0.0000 F   0  0  0
    0.0940    2.1385    0.0000 C   0  0  0
   -1.3865    1.8330    0.0000 C   0  0  0
    0.5405    3.5721    0.0000 C   0  0  0
   -2.3971    2.9611    0.0000 C   0  0  0
   -2.1503    0.5405    0.0000 C   0  0  0
   -0.4700    4.7001    0.0000 C   0  0  0
   -3.7836    2.3618    0.0000 C   0  0  0
   -1.9505    4.3946    0.0000 C   0  0  0
   -3.6308    0.8695    0.0000 N   0  0  0
   -0.0235    6.1336    0.0000 C   0  0  0
   -5.0996    3.1256    0.0000 O   0  0  0
   -4.7589   -0.1175    0.0000 C   0  0  0
    1.4335    6.4626    0.0000 N   0  0  0
   -4.4534   -1.5745    0.0000 C   0  0  0
   -6.1924    0.3525    0.0000 C   0  0  0
    2.5381    5.4756    0.0000 C   0  0  0
    2.0328    7.8492    0.0000 C   0  0  0
   -5.5814   -2.5616    0.0000 C   0  0  0
   -7.3204   -0.6345    0.0000 C   0  0  0
    3.8188    6.2394    0.0000 C   0  0  1
    3.5133    7.7082    0.0000 C   0  0  0
   -7.0149   -2.0915    0.0000 C   0  0  0
   -5.2759   -4.0186    0.0000 C   0  0  0
    5.1819    5.6401    0.0000 C   0  0  0
   -4.0303   -4.8294    0.0000 C   0  0  0
   -6.1101   -5.2641    0.0000 C   0  0  0
   -6.7094   -3.5486    0.0000 C   0  0  0
    6.5449    5.0409    0.0000 N   0  0  0
   -4.8646   -6.0749    0.0000 O   0  0  0
   -7.8374   -4.5356    0.0000 C   0  0  0
   -9.3180   -4.2066    0.0000 N   0  0  0
   -7.6964   -6.0161    0.0000 N   0  0  0
  -10.0817   -5.4991    0.0000 N   0  0  0
   -9.0830   -6.6154    0.0000 C   0  0  0
   -6.4039   -6.7564    0.0000 C   0  0  0
  1  2  1
  2  3  1
  2  4  1
  2  5  1
  5  6  2
  5  7  1
  6  8  1
  6  9  1
  7 10  2
  8 11  1
  8 12  2
  9 13  1
 10 14  1
 11 15  2
 13 16  1
 14 17  1
 16 18  2
 16 19  1
 17 20  1
 17 21  1
 18 22  1
 19 23  2
 24 20  1
 21 25  1
 22 26  2
 22 27  1
 24 28  1  1  0
 27 29  1
 27 30  1
 27 31  1
 28 32  3
 29 33  1
 31 34  1
 34 35  2
 34 36  1
 35 37  1
 36 38  1
 36 39  1
 10 12  1
 11 13  1
 23 26  1
 24 25  1
 30 33  1
 37 38  2
M  END
> <COMPOUND_NAMES>
Example 421 (R) (Page No: 583)

> <Reference>
WO2019148005

> <IC50_range_nM>
<100

> <smiles>
Cn1cnnc1CC1(COC1)c1cccc(c1)N1Cc2c(cc(CN3CC[C@H](C3)C#N)cc2C(F)(F)F)C1=O

$$$$
C28H27F3N6O2
  MOLSOFT 03092310482D

 39 44  0  0  1  0  0  0  0  0999 V2000
    0.0000   -0.0000    0.0000 F   0  0  0
    1.1045    1.0105    0.0000 C   0  0  0
    2.0915   -0.0940    0.0000 F   0  0  0
    2.2091    2.0210    0.0000 F   0  0  0
    0.0940    2.1385    0.0000 C   0  0  0
   -1.3865    1.8330    0.0000 C   0  0  0
    0.5405    3.5721    0.0000 C   0  0  0
   -2.3971    2.9611    0.0000 C   0  0  0
   -2.1503    0.5405    0.0000 C   0  0  0
   -0.4700    4.7001    0.0000 C   0  0  0
   -3.7836    2.3618    0.0000 C   0  0  0
   -1.9505    4.3946    0.0000 C   0  0  0
   -3.6308    0.8695    0.0000 N   0  0  0
   -0.0235    6.1336    0.0000 C   0  0  0
   -5.0996    3.1256    0.0000 O   0  0  0
   -4.7589   -0.1175    0.0000 C   0  0  0
    1.4335    6.4626    0.0000 N   0  0  0
   -4.4534   -1.5745    0.0000 C   0  0  0
   -6.1924    0.3525    0.0000 C   0  0  0
    2.5381    5.4756    0.0000 C   0  0  0
    2.0328    7.8492    0.0000 C   0  0  0
   -5.5814   -2.5616    0.0000 C   0  0  0
   -7.3204   -0.6345    0.0000 C   0  0  0
    3.8188    6.2394    0.0000 C   0  0  2
    3.5133    7.7082    0.0000 C   0  0  0
   -7.0149   -2.0915    0.0000 C   0  0  0
   -5.2759   -4.0186    0.0000 C   0  0  0
    5.1819    5.6401    0.0000 C   0  0  0
   -4.0303   -4.8294    0.0000 C   0  0  0
   -6.1101   -5.2641    0.0000 C   0  0  0
   -6.7094   -3.5486    0.0000 C   0  0  0
    6.5449    5.0409    0.0000 N   0  0  0
   -4.8646   -6.0749    0.0000 O   0  0  0
   -7.8374   -4.5356    0.0000 C   0  0  0
   -9.3180   -4.2066    0.0000 N   0  0  0
   -7.6964   -6.0161    0.0000 N   0  0  0
  -10.0817   -5.4991    0.0000 N   0  0  0
   -9.0830   -6.6154    0.0000 C   0  0  0
   -6.4039   -6.7564    0.0000 C   0  0  0
  1  2  1
  2  3  1
  2  4  1
  2  5  1
  5  6  2
  5  7  1
  6  8  1
  6  9  1
  7 10  2
  8 11  1
  8 12  2
  9 13  1
 10 14  1
 11 15  2
 13 16  1
 14 17  1
 16 18  2
 16 19  1
 17 20  1
 17 21  1
 18 22  1
 19 23  2
 24 20  1
 21 25  1
 22 26  2
 22 27  1
 24 28  1  6  0
 27 29  1
 27 30  1
 27 31  1
 28 32  3
 29 33  1
 31 34  1
 34 35  2
 34 36  1
 35 37  1
 36 38  1
 36 39  1
 10 12  1
 11 13  1
 23 26  1
 24 25  1
 30 33  1
 37 38  2
M  END
> <COMPOUND_NAMES>
Example 422 (S) (Page No: 583)

> <Reference>
WO2019148005

> <IC50_range_nM>
<100

> <smiles>
Cn1cnnc1CC1(COC1)c1cccc(c1)N1Cc2c(cc(CN3CC[C@@H](C3)C#N)cc2C(F)(F)F)C1=O

$$$$
C29H29F3N6O2
  MOLSOFT 03092310482D

 40 45  0  0  0  0  0  0  0  0999 V2000
    0.0000   -0.0000    0.0000 F   0  0  0
    1.1034    1.0095    0.0000 C   0  0  0
    2.1012   -0.0939    0.0000 F   0  0  0
    2.2068    2.0307    0.0000 F   0  0  0
    0.0822    2.1364    0.0000 C   0  0  0
   -1.3969    1.8312    0.0000 C   0  0  0
    0.5282    3.5684    0.0000 C   0  0  0
   -2.4181    2.9580    0.0000 C   0  0  0
   -2.1598    0.5400    0.0000 C   0  0  0
   -0.4930    4.6953    0.0000 C   0  0  0
   -3.8032    2.3594    0.0000 C   0  0  0
   -1.9720    4.3901    0.0000 C   0  0  0
   -3.6389    0.8686    0.0000 N   0  0  0
   -0.0470    6.1274    0.0000 C   0  0  0
   -5.1179    3.1224    0.0000 O   0  0  0
   -4.7657   -0.1291    0.0000 C   0  0  0
    1.4086    6.4561    0.0000 N   0  0  0
   -4.4605   -1.5847    0.0000 C   0  0  0
   -6.1978    0.3404    0.0000 C   0  0  0
    1.8546    7.8881    0.0000 C   0  0  0
    2.4063    5.3527    0.0000 C   0  0  0
   -5.5874   -2.5707    0.0000 C   0  0  0
   -7.3247   -0.6573    0.0000 C   0  0  0
    3.3102    8.2168    0.0000 C   0  0  0
    3.8619    5.6813    0.0000 C   0  0  0
   -7.0312   -2.1012    0.0000 C   0  0  0
   -5.2822   -4.0262    0.0000 C   0  0  0
    4.3079    7.1134    0.0000 C   0  0  0
   -4.0380   -4.8362    0.0000 C   0  0  0
   -6.1156   -5.2705    0.0000 C   0  0  0
   -6.7143   -3.5567    0.0000 C   0  0  0
    5.7635    7.4421    0.0000 C   0  0  0
   -4.8714   -6.0804    0.0000 O   0  0  0
   -7.8412   -4.5545    0.0000 C   0  0  0
    7.2190    7.7707    0.0000 N   0  0  0
   -9.3202   -4.2258    0.0000 N   0  0  0
   -7.7003   -6.0335    0.0000 N   0  0  0
  -10.0832   -5.5170    0.0000 N   0  0  0
   -9.0854   -6.6321    0.0000 C   0  0  0
   -6.4091   -6.7730    0.0000 C   0  0  0
  1  2  1
  2  3  1
  2  4  1
  2  5  1
  5  6  2
  5  7  1
  6  8  1
  6  9  1
  7 10  2
  8 11  1
  8 12  2
  9 13  1
 10 14  1
 11 15  2
 13 16  1
 14 17  1
 16 18  2
 16 19  1
 17 20  1
 17 21  1
 18 22  1
 19 23  2
 20 24  1
 21 25  1
 22 26  2
 22 27  1
 24 28  1
 27 29  1
 27 30  1
 27 31  1
 28 32  1
 29 33  1
 31 34  1
 32 35  3
 34 36  2
 34 37  1
 36 38  1
 37 39  1
 37 40  1
 10 12  1
 11 13  1
 23 26  1
 25 28  1
 30 33  1
 38 39  2
M  END
> <COMPOUND_NAMES>
Example 628 (Page No: 732)

> <Reference>
WO2019148005

> <IC50_range_nM>
<100

> <smiles>
Cn1cnnc1CC1(COC1)c1cccc(c1)N1Cc2c(cc(CN3CCC(CC3)C#N)cc2C(F)(F)F)C1=O

$$$$
C30H31F3N6O2
  MOLSOFT 03092310482D

 41 46  0  0  0  0  0  0  0  0999 V2000
    0.0000   -0.0000    0.0000 F   0  0  0
    1.1036    1.0097    0.0000 C   0  0  0
    2.1016   -0.0939    0.0000 F   0  0  0
    2.2073    2.0312    0.0000 F   0  0  0
    0.0822    2.1368    0.0000 C   0  0  0
   -1.3972    1.8316    0.0000 C   0  0  0
    0.5283    3.5692    0.0000 C   0  0  0
   -2.4186    2.9587    0.0000 C   0  0  0
   -2.1603    0.5401    0.0000 C   0  0  0
   -0.4931    4.6963    0.0000 C   0  0  0
   -3.8040    2.3599    0.0000 C   0  0  0
   -1.9725    4.3911    0.0000 C   0  0  0
   -3.6396    0.8688    0.0000 N   0  0  0
   -0.0470    6.1287    0.0000 C   0  0  0
   -5.1190    3.1230    0.0000 O   0  0  0
   -4.7668   -0.1291    0.0000 C   0  0  0
    1.4089    6.4574    0.0000 N   0  0  0
   -4.4615   -1.5850    0.0000 C   0  0  0
   -6.1991    0.3405    0.0000 C   0  0  0
    1.8550    7.8898    0.0000 C   0  0  0
    2.4069    5.3538    0.0000 C   0  0  0
   -5.5886   -2.5712    0.0000 C   0  0  0
   -7.3262   -0.6575    0.0000 C   0  0  0
    3.3109    8.2185    0.0000 C   0  0  0
    3.8627    5.6825    0.0000 C   0  0  0
   -7.0327   -2.1016    0.0000 C   0  0  0
   -5.2833   -4.0271    0.0000 C   0  0  0
    4.3089    7.1149    0.0000 C   0  0  0
   -4.0388   -4.8372    0.0000 C   0  0  0
   -6.1169   -5.2716    0.0000 C   0  0  0
   -6.7157   -3.5575    0.0000 C   0  0  0
    5.7178    6.6688    0.0000 C   0  0  0
    5.4125    8.1364    0.0000 C   0  0  0
   -4.8724   -6.0817    0.0000 O   0  0  0
   -7.8428   -4.5554    0.0000 C   0  0  0
    7.1384    6.2226    0.0000 N   0  0  0
   -9.3222   -4.2267    0.0000 N   0  0  0
   -7.7019   -6.0348    0.0000 N   0  0  0
  -10.0853   -5.5182    0.0000 N   0  0  0
   -9.0874   -6.6335    0.0000 C   0  0  0
   -6.4105   -6.7744    0.0000 C   0  0  0
  1  2  1
  2  3  1
  2  4  1
  2  5  1
  5  6  2
  5  7  1
  6  8  1
  6  9  1
  7 10  2
  8 11  1
  8 12  2
  9 13  1
 10 14  1
 11 15  2
 13 16  1
 14 17  1
 16 18  2
 16 19  1
 17 20  1
 17 21  1
 18 22  1
 19 23  2
 20 24  1
 21 25  1
 22 26  2
 22 27  1
 24 28  1
 27 29  1
 27 30  1
 27 31  1
 28 32  1
 28 33  1
 29 34  1
 31 35  1
 32 36  3
 35 37  2
 35 38  1
 37 39  1
 38 40  1
 38 41  1
 10 12  1
 11 13  1
 23 26  1
 25 28  1
 30 34  1
 39 40  2
M  END
> <COMPOUND_NAMES>
Example 642 (Page No: 738)

> <Reference>
WO2019148005

> <IC50_range_nM>
<100

> <smiles>
CC1(CCN(CC1)Cc1cc2C(N(Cc2c(c1)C(F)(F)F)c1cccc(c1)C1(Cc2nncn2C)COC1)=O)C#N

$$$$
C27H26F3N5O3
  MOLSOFT 03092310482D

 38 43  0  0  0  0  0  0  0  0999 V2000
    0.0000   -0.0000    0.0000 F   0  0  0
    1.1043    1.0103    0.0000 C   0  0  0
    2.0912   -0.0940    0.0000 F   0  0  0
    2.2086    2.0207    0.0000 F   0  0  0
    0.0940    2.1382    0.0000 C   0  0  0
   -1.3863    1.8327    0.0000 C   0  0  0
    0.5404    3.5714    0.0000 C   0  0  0
   -2.3966    2.9605    0.0000 C   0  0  0
   -2.1499    0.5404    0.0000 C   0  0  0
   -0.4699    4.6993    0.0000 C   0  0  0
   -3.7829    2.3614    0.0000 C   0  0  0
   -1.9502    4.3938    0.0000 C   0  0  0
   -3.6302    0.8694    0.0000 N   0  0  0
   -0.0235    6.1325    0.0000 C   0  0  0
   -5.0987    3.1250    0.0000 O   0  0  0
   -4.7580   -0.1175    0.0000 C   0  0  0
    1.4333    6.4615    0.0000 N   0  0  0
   -4.4525   -1.5742    0.0000 C   0  0  0
   -6.1913    0.3524    0.0000 C   0  0  0
    2.5376    5.4746    0.0000 C   0  0  0
    2.0324    7.8478    0.0000 C   0  0  0
   -5.5804   -2.5611    0.0000 C   0  0  0
   -7.3191   -0.6344    0.0000 C   0  0  0
    2.3731    3.9944    0.0000 O   0  0  0
    3.8181    6.2383    0.0000 C   0  0  0
    3.5127    7.7068    0.0000 C   0  0  0
   -7.0136   -2.0912    0.0000 C   0  0  0
   -5.2749   -4.0179    0.0000 C   0  0  0
   -4.0296   -4.8285    0.0000 C   0  0  0
   -6.1090   -5.2632    0.0000 C   0  0  0
   -6.7082   -3.5479    0.0000 C   0  0  0
   -4.8637   -6.0738    0.0000 O   0  0  0
   -7.8360   -4.5348    0.0000 C   0  0  0
   -9.3163   -4.2058    0.0000 N   0  0  0
   -7.6950   -6.0150    0.0000 N   0  0  0
  -10.0799   -5.4981    0.0000 N   0  0  0
   -9.0813   -6.6142    0.0000 C   0  0  0
   -6.4027   -6.7552    0.0000 C   0  0  0
  1  2  1
  2  3  1
  2  4  1
  2  5  1
  5  6  2
  5  7  1
  6  8  1
  6  9  1
  7 10  2
  8 11  1
  8 12  2
  9 13  1
 10 14  1
 11 15  2
 13 16  1
 14 17  1
 16 18  2
 16 19  1
 17 20  1
 17 21  1
 18 22  1
 19 23  2
 20 24  2
 20 25  1
 21 26  1
 22 27  2
 22 28  1
 28 29  1
 28 30  1
 28 31  1
 29 32  1
 31 33  1
 33 34  2
 33 35  1
 34 36  1
 35 37  1
 35 38  1
 10 12  1
 11 13  1
 23 27  1
 25 26  1
 30 32  1
 36 37  2
M  END
> <COMPOUND_NAMES>
Example 426 (Page No: 585)

> <Reference>
WO2019148005

> <IC50_range_nM>
<100

> <smiles>
Cn1cnnc1CC1(COC1)c1cccc(c1)N1Cc2c(cc(CN3CCCC3=O)cc2C(F)(F)F)C1=O

$$$$
C28H28F3N5O2
  MOLSOFT 03092310482D

 38 44  0  0  0  0  0  0  0  0999 V2000
    0.0000   -0.0000    0.0000 F   0  0  0
    1.1035    1.0096    0.0000 C   0  0  0
    2.1013   -0.0939    0.0000 F   0  0  0
    2.2070    2.0309    0.0000 F   0  0  0
    0.0822    2.1365    0.0000 C   0  0  0
   -1.3970    1.8313    0.0000 C   0  0  0
    0.5283    3.5687    0.0000 C   0  0  0
   -2.4183    2.9583    0.0000 C   0  0  0
   -2.1600    0.5400    0.0000 C   0  0  0
   -0.4930    4.6957    0.0000 C   0  0  0
   -3.8035    2.3596    0.0000 C   0  0  0
   -1.9722    4.3905    0.0000 C   0  0  0
   -3.6392    0.8687    0.0000 N   0  0  0
   -0.0470    6.1279    0.0000 C   0  0  0
   -5.1183    3.1226    0.0000 O   0  0  0
   -4.7661   -0.1291    0.0000 C   0  0  0
    1.4087    6.4566    0.0000 N   0  0  0
   -4.4609   -1.5848    0.0000 C   0  0  0
   -6.1983    0.3404    0.0000 C   0  0  0
    2.2187    7.7244    0.0000 C   0  0  0
    2.6531    5.6466    0.0000 C   0  0  0
   -5.5879   -2.5709    0.0000 C   0  0  0
   -7.3253   -0.6574    0.0000 C   0  0  0
    3.4631    6.9144    0.0000 C   0  0  0
   -7.0318   -2.1013    0.0000 C   0  0  0
   -5.2827   -4.0266    0.0000 C   0  0  0
    4.5666    7.9240    0.0000 C   0  0  0
    4.8718    6.4683    0.0000 C   0  0  0
   -4.0383   -4.8366    0.0000 C   0  0  0
   -6.1162   -5.2709    0.0000 C   0  0  0
   -6.7149   -3.5570    0.0000 C   0  0  0
   -4.8718   -6.0809    0.0000 O   0  0  0
   -7.8418   -4.5548    0.0000 C   0  0  0
   -9.3210   -4.2261    0.0000 N   0  0  0
   -7.7010   -6.0340    0.0000 N   0  0  0
  -10.0840   -5.5175    0.0000 N   0  0  0
   -9.0862   -6.6327    0.0000 C   0  0  0
   -6.4096   -6.7736    0.0000 C   0  0  0
  1  2  1
  2  3  1
  2  4  1
  2  5  1
  5  6  2
  5  7  1
  6  8  1
  6  9  1
  7 10  2
  8 11  1
  8 12  2
  9 13  1
 10 14  1
 11 15  2
 13 16  1
 14 17  1
 16 18  2
 16 19  1
 17 20  1
 17 21  1
 18 22  1
 19 23  2
 20 24  1
 22 25  2
 22 26  1
 24 27  1
 24 28  1
 26 29  1
 26 30  1
 26 31  1
 29 32  1
 31 33  1
 33 34  2
 33 35  1
 34 36  1
 35 37  1
 35 38  1
 10 12  1
 11 13  1
 21 24  1
 23 25  1
 27 28  1
 30 32  1
 36 37  2
M  END
> <COMPOUND_NAMES>
Example 487 (Page No: 638)

> <Reference>
WO2019148005

> <IC50_range_nM>
<100

> <smiles>
Cn1cnnc1CC1(COC1)c1cccc(c1)N1Cc2c(cc(CN3CC4(CC4)C3)cc2C(F)(F)F)C1=O

$$$$
C29H30F3N5O2
  MOLSOFT 03092310482D

 39 45  0  0  0  0  0  0  0  0999 V2000
    0.0000   -0.0000    0.0000 F   0  0  0
    1.1048    1.0107    0.0000 C   0  0  0
    2.0920   -0.0940    0.0000 F   0  0  0
    2.2095    2.0215    0.0000 F   0  0  0
    0.0940    2.1390    0.0000 C   0  0  0
   -1.3868    1.8334    0.0000 C   0  0  0
    0.5406    3.5728    0.0000 C   0  0  0
   -2.3975    2.9617    0.0000 C   0  0  0
   -2.1507    0.5406    0.0000 C   0  0  0
   -0.4701    4.7011    0.0000 C   0  0  0
   -3.7844    2.3623    0.0000 C   0  0  0
   -1.9509    4.3955    0.0000 C   0  0  0
   -3.6316    0.8697    0.0000 N   0  0  0
   -0.0235    6.1349    0.0000 C   0  0  0
   -5.1007    3.1262    0.0000 O   0  0  0
   -4.7598   -0.1175    0.0000 C   0  0  0
    1.4338    6.4640    0.0000 N   0  0  0
   -4.4543   -1.5749    0.0000 C   0  0  0
   -6.1937    0.3526    0.0000 C   0  0  0
    2.5386    5.4767    0.0000 C   0  0  0
    2.0332    7.8508    0.0000 C   0  0  0
   -5.5825   -2.5621    0.0000 C   0  0  0
   -7.3219   -0.6346    0.0000 C   0  0  0
    3.8196    6.2407    0.0000 C   0  0  0
    3.5141    7.7098    0.0000 C   0  0  0
   -7.0163   -2.0920    0.0000 C   0  0  0
   -5.2770   -4.0194    0.0000 C   0  0  0
    5.3005    6.4052    0.0000 C   0  0  0
    4.6893    5.0419    0.0000 C   0  0  0
   -4.0312   -4.8304    0.0000 C   0  0  0
   -6.1114   -5.2652    0.0000 C   0  0  0
   -6.7108   -3.5493    0.0000 C   0  0  0
   -4.8656   -6.0761    0.0000 O   0  0  0
   -7.8390   -4.5365    0.0000 C   0  0  0
   -9.3199   -4.2075    0.0000 N   0  0  0
   -7.6980   -6.0174    0.0000 N   0  0  0
  -10.0838   -5.5003    0.0000 N   0  0  0
   -9.0848   -6.6168    0.0000 C   0  0  0
   -6.4052   -6.7578    0.0000 C   0  0  0
  1  2  1
  2  3  1
  2  4  1
  2  5  1
  5  6  2
  5  7  1
  6  8  1
  6  9  1
  7 10  2
  8 11  1
  8 12  2
  9 13  1
 10 14  1
 11 15  2
 13 16  1
 14 17  1
 16 18  2
 16 19  1
 17 20  1
 17 21  1
 18 22  1
 19 23  2
 20 24  1
 21 25  1
 22 26  2
 22 27  1
 24 28  1
 24 29  1
 27 30  1
 27 31  1
 27 32  1
 30 33  1
 32 34  1
 34 35  2
 34 36  1
 35 37  1
 36 38  1
 36 39  1
 10 12  1
 11 13  1
 23 26  1
 24 25  1
 28 29  1
 31 33  1
 37 38  2
M  END
> <COMPOUND_NAMES>
Example 520 (Page No: 661)

> <Reference>
WO2019148005

> <IC50_range_nM>
<100

> <smiles>
Cn1cnnc1CC1(COC1)c1cccc(c1)N1Cc2c(cc(CN3CCC4(CC4)C3)cc2C(F)(F)F)C1=O

$$$$
C30H32F3N5O2
  MOLSOFT 03092310482D

 40 46  0  0  0  0  0  0  0  0999 V2000
    0.0000   -0.0000    0.0000 F   0  0  0
    1.0794    1.0108    0.0000 C   0  0  0
    2.0559   -0.0685    0.0000 F   0  0  0
    2.1587    2.0217    0.0000 F   0  0  0
    0.0685    2.1245    0.0000 C   0  0  0
   -1.4049    1.8332    0.0000 C   0  0  0
    0.5140    3.5465    0.0000 C   0  0  0
   -2.4157    2.9468    0.0000 C   0  0  0
   -2.1587    0.5654    0.0000 C   0  0  0
   -0.4968    4.6601    0.0000 C   0  0  0
   -3.7863    2.3643    0.0000 C   0  0  0
   -1.9703    4.3688    0.0000 C   0  0  0
   -3.6321    0.8909    0.0000 N   0  0  0
   -0.0514    6.0821    0.0000 C   0  0  0
   -5.0884    3.1182    0.0000 O   0  0  0
   -4.7458   -0.0857    0.0000 C   0  0  0
    1.3878    6.4076    0.0000 N   0  0  0
   -4.4545   -1.5248    0.0000 C   0  0  0
   -6.1678    0.3941    0.0000 C   0  0  0
    2.4671    5.4311    0.0000 C   0  0  0
    1.9703    7.7783    0.0000 C   0  0  0
   -5.5681   -2.5014    0.0000 C   0  0  0
   -7.2814   -0.5825    0.0000 C   0  0  0
    3.7349    6.1849    0.0000 C   0  0  0
    3.4265    7.6412    0.0000 C   0  0  0
   -6.9901   -2.0217    0.0000 C   0  0  0
   -5.1227   -4.6601    0.0000 C   0  0  0
    5.1912    6.3562    0.0000 C   0  0  0
    4.5916    5.0028    0.0000 C   0  0  0
   -6.5447   -4.1804    0.0000 C   0  0  3
   -3.8891   -5.4482    0.0000 C   0  0  0
   -5.9451   -5.8937    0.0000 C   0  0  0
   -7.6583   -5.1569    0.0000 C   0  0  0
   -6.8702   -2.7070    0.0000 C   0  0  0
   -4.7115   -6.6818    0.0000 O   0  0  0
   -7.5213   -6.6132    0.0000 N   0  0  0
   -9.1317   -4.8314    0.0000 N   0  0  0
   -8.8919   -7.1957    0.0000 N   0  0  0
   -9.8856   -6.0992    0.0000 C   0  0  0
   -9.7485   -3.4608    0.0000 C   0  0  0
  1  2  1
  2  3  1
  2  4  1
  2  5  1
  5  6  2
  5  7  1
  6  8  1
  6  9  1
  7 10  2
  8 11  1
  8 12  2
  9 13  1
 10 14  1
 11 15  2
 13 16  1
 14 17  1
 16 18  2
 16 19  1
 17 20  1
 17 21  1
 18 22  1
 19 23  2
 20 24  1
 21 25  1
 22 26  2
 22 27  1
 24 28  1
 24 29  1
 30 27  1
 27 31  1
 27 32  1
 30 33  1
 30 34  1
 31 35  1
 33 36  2
 33 37  1
 36 38  1
 37 39  1
 37 40  1
 10 12  1
 11 13  1
 23 26  1
 24 25  1
 28 29  1
 32 35  1
 38 39  2
M  END
> <COMPOUND_NAMES>
Example 701 (+/-) (Page No: 779)

> <Reference>
WO2019148005

> <IC50_range_nM>
301-1000

> <smiles>
CC(c1nncn1C)C1(COC1)c1cccc(c1)N1Cc2c(cc(CN3CCC4(CC4)C3)cc2C(F)(F)F)C1=O

$$$$
C30H32F3N5O2
  MOLSOFT 03092310482D

 40 46  0  0  1  0  0  0  0  0999 V2000
    0.0000   -0.0000    0.0000 F   0  0  0
    1.1048    1.0108    0.0000 C   0  0  0
    2.0921   -0.0940    0.0000 F   0  0  0
    2.2096    2.0215    0.0000 F   0  0  0
    0.0940    2.1391    0.0000 C   0  0  0
   -1.3869    1.8335    0.0000 C   0  0  0
    0.5406    3.5729    0.0000 C   0  0  0
   -2.3976    2.9618    0.0000 C   0  0  0
   -2.1508    0.5406    0.0000 C   0  0  0
   -0.4701    4.7012    0.0000 C   0  0  0
   -3.7845    2.3624    0.0000 C   0  0  0
   -1.9510    4.3957    0.0000 C   0  0  0
   -3.6317    0.8697    0.0000 N   0  0  0
   -0.0235    6.1351    0.0000 C   0  0  0
   -5.1008    3.1263    0.0000 O   0  0  0
   -4.7600   -0.1175    0.0000 C   0  0  0
    1.4339    6.4642    0.0000 N   0  0  0
   -4.4544   -1.5749    0.0000 C   0  0  0
   -6.1939    0.3526    0.0000 C   0  0  0
    2.5387    5.4769    0.0000 C   0  0  0
    2.0333    7.8511    0.0000 C   0  0  0
   -5.5827   -2.5622    0.0000 C   0  0  0
   -7.3222   -0.6347    0.0000 C   0  0  0
    3.8198    6.2409    0.0000 C   0  0  0
    3.5142    7.7100    0.0000 C   0  0  0
   -7.0166   -2.0921    0.0000 C   0  0  0
   -5.2771   -4.0196    0.0000 C   0  0  1
    5.3006    6.4054    0.0000 C   0  0  0
    4.6895    5.0421    0.0000 C   0  0  0
   -6.2879   -5.1243    0.0000 C   0  0  0
   -3.9138   -4.6190    0.0000 C   0  0  0
   -6.7110   -3.5494    0.0000 C   0  0  0
   -5.5475   -6.4172    0.0000 O   0  0  0
   -4.0783   -6.0999    0.0000 C   0  0  0
   -7.8393   -4.5367    0.0000 C   0  0  0
   -9.3202   -4.2076    0.0000 N   0  0  0
   -7.6983   -6.0176    0.0000 N   0  0  0
  -10.0842   -5.5004    0.0000 N   0  0  0
   -9.0851   -6.6170    0.0000 C   0  0  0
   -6.4054   -6.7580    0.0000 C   0  0  0
  1  2  1
  2  3  1
  2  4  1
  2  5  1
  5  6  2
  5  7  1
  6  8  1
  6  9  1
  7 10  2
  8 11  1
  8 12  2
  9 13  1
 10 14  1
 11 15  2
 13 16  1
 14 17  1
 16 18  2
 16 19  1
 17 20  1
 17 21  1
 18 22  1
 19 23  2
 20 24  1
 21 25  1
 22 26  2
 27 22  1
 24 28  1
 24 29  1
 27 30  1
 27 31  1
 27 32  1  1  0
 30 33  1
 31 34  1
 32 35  1
 35 36  2
 35 37  1
 36 38  1
 37 39  1
 37 40  1
 10 12  1
 11 13  1
 23 26  1
 24 25  1
 28 29  1
 33 34  1
 38 39  2
M  END
> <COMPOUND_NAMES>
Example 517a (S) (Page No: 656)

> <Reference>
WO2019148005

> <IC50_range_nM>
<100

> <smiles>
Cn1cnnc1C[C@]1(CCOC1)c1cccc(c1)N1Cc2c(cc(CN3CCC4(CC4)C3)cc2C(F)(F)F)C1=O

$$$$
C30H32F3N5O2
  MOLSOFT 03092310482D

 40 46  0  0  1  0  0  0  0  0999 V2000
    0.0000   -0.0000    0.0000 F   0  0  0
    1.1048    1.0108    0.0000 C   0  0  0
    2.0921   -0.0940    0.0000 F   0  0  0
    2.2096    2.0215    0.0000 F   0  0  0
    0.0940    2.1391    0.0000 C   0  0  0
   -1.3869    1.8335    0.0000 C   0  0  0
    0.5406    3.5729    0.0000 C   0  0  0
   -2.3976    2.9618    0.0000 C   0  0  0
   -2.1508    0.5406    0.0000 C   0  0  0
   -0.4701    4.7012    0.0000 C   0  0  0
   -3.7845    2.3624    0.0000 C   0  0  0
   -1.9510    4.3957    0.0000 C   0  0  0
   -3.6317    0.8697    0.0000 N   0  0  0
   -0.0235    6.1351    0.0000 C   0  0  0
   -5.1008    3.1263    0.0000 O   0  0  0
   -4.7600   -0.1175    0.0000 C   0  0  0
    1.4339    6.4642    0.0000 N   0  0  0
   -4.4544   -1.5749    0.0000 C   0  0  0
   -6.1939    0.3526    0.0000 C   0  0  0
    2.5387    5.4769    0.0000 C   0  0  0
    2.0333    7.8511    0.0000 C   0  0  0
   -5.5827   -2.5622    0.0000 C   0  0  0
   -7.3222   -0.6347    0.0000 C   0  0  0
    3.8198    6.2409    0.0000 C   0  0  0
    3.5142    7.7100    0.0000 C   0  0  0
   -7.0166   -2.0921    0.0000 C   0  0  0
   -5.2771   -4.0196    0.0000 C   0  0  2
    5.3006    6.4054    0.0000 C   0  0  0
    4.6895    5.0421    0.0000 C   0  0  0
   -6.2879   -5.1243    0.0000 C   0  0  0
   -3.9138   -4.6190    0.0000 C   0  0  0
   -6.7110   -3.5494    0.0000 C   0  0  0
   -5.5475   -6.4172    0.0000 O   0  0  0
   -4.0783   -6.0999    0.0000 C   0  0  0
   -7.8393   -4.5367    0.0000 C   0  0  0
   -9.3202   -4.2076    0.0000 N   0  0  0
   -7.6983   -6.0176    0.0000 N   0  0  0
  -10.0842   -5.5004    0.0000 N   0  0  0
   -9.0851   -6.6170    0.0000 C   0  0  0
   -6.4054   -6.7580    0.0000 C   0  0  0
  1  2  1
  2  3  1
  2  4  1
  2  5  1
  5  6  2
  5  7  1
  6  8  1
  6  9  1
  7 10  2
  8 11  1
  8 12  2
  9 13  1
 10 14  1
 11 15  2
 13 16  1
 14 17  1
 16 18  2
 16 19  1
 17 20  1
 17 21  1
 18 22  1
 19 23  2
 20 24  1
 21 25  1
 22 26  2
 27 22  1
 24 28  1
 24 29  1
 27 30  1
 27 31  1
 27 32  1  6  0
 30 33  1
 31 34  1
 32 35  1
 35 36  2
 35 37  1
 36 38  1
 37 39  1
 37 40  1
 10 12  1
 11 13  1
 23 26  1
 24 25  1
 28 29  1
 33 34  1
 38 39  2
M  END
> <COMPOUND_NAMES>
Example 517b (R) (Page No: 657)

> <Reference>
WO2019148005

> <IC50_range_nM>
<100

> <smiles>
Cn1cnnc1C[C@@]1(CCOC1)c1cccc(c1)N1Cc2c(cc(CN3CCC4(CC4)C3)cc2C(F)(F)F)C1=O

$$$$
C30H32F3N5O2
  MOLSOFT 03092310482D

 40 46  0  0  0  0  0  0  0  0999 V2000
    0.0000   -0.0000    0.0000 F   0  0  0
    1.1035    1.0096    0.0000 C   0  0  0
    2.1013   -0.0939    0.0000 F   0  0  0
    2.2069    2.0309    0.0000 F   0  0  0
    0.0822    2.1365    0.0000 C   0  0  0
   -1.3970    1.8313    0.0000 C   0  0  0
    0.5283    3.5687    0.0000 C   0  0  0
   -2.4183    2.9582    0.0000 C   0  0  0
   -2.1600    0.5400    0.0000 C   0  0  0
   -0.4930    4.6956    0.0000 C   0  0  0
   -3.8035    2.3596    0.0000 C   0  0  0
   -1.9722    4.3904    0.0000 C   0  0  0
   -3.6391    0.8687    0.0000 N   0  0  0
   -0.0470    6.1278    0.0000 C   0  0  0
   -5.1182    3.1226    0.0000 O   0  0  0
   -4.7661   -0.1291    0.0000 C   0  0  0
    1.4087    6.4565    0.0000 N   0  0  0
   -4.4609   -1.5848    0.0000 C   0  0  0
   -6.1982    0.3404    0.0000 C   0  0  0
    1.8548    7.8887    0.0000 C   0  0  0
    2.4065    5.3530    0.0000 C   0  0  0
   -5.5878   -2.5709    0.0000 C   0  0  0
   -7.3252   -0.6574    0.0000 C   0  0  0
    3.3104    8.2174    0.0000 C   0  0  0
    3.8622    5.6817    0.0000 C   0  0  0
   -7.0317   -2.1013    0.0000 C   0  0  0
   -5.2826   -4.0265    0.0000 C   0  0  0
    4.3082    7.1139    0.0000 C   0  0  0
   -4.0382   -4.8365    0.0000 C   0  0  0
   -6.1161   -5.2708    0.0000 C   0  0  0
   -6.7148   -3.5569    0.0000 C   0  0  0
    5.4117    8.1352    0.0000 C   0  0  0
    5.7169    6.6678    0.0000 C   0  0  0
   -4.8717   -6.0808    0.0000 O   0  0  0
   -7.8417   -4.5548    0.0000 C   0  0  0
   -9.3208   -4.2261    0.0000 N   0  0  0
   -7.7008   -6.0339    0.0000 N   0  0  0
  -10.0839   -5.5174    0.0000 N   0  0  0
   -9.0860   -6.6326    0.0000 C   0  0  0
   -6.4095   -6.7735    0.0000 C   0  0  0
  1  2  1
  2  3  1
  2  4  1
  2  5  1
  5  6  2
  5  7  1
  6  8  1
  6  9  1
  7 10  2
  8 11  1
  8 12  2
  9 13  1
 10 14  1
 11 15  2
 13 16  1
 14 17  1
 16 18  2
 16 19  1
 17 20  1
 17 21  1
 18 22  1
 19 23  2
 20 24  1
 21 25  1
 22 26  2
 22 27  1
 24 28  1
 27 29  1
 27 30  1
 27 31  1
 28 32  1
 28 33  1
 29 34  1
 31 35  1
 35 36  2
 35 37  1
 36 38  1
 37 39  1
 37 40  1
 10 12  1
 11 13  1
 23 26  1
 25 28  1
 30 34  1
 32 33  1
 38 39  2
M  END
> <COMPOUND_NAMES>
Example 641 (Page No: 738)

> <Reference>
WO2019148005

> <IC50_range_nM>
<100

> <smiles>
Cn1cnnc1CC1(COC1)c1cccc(c1)N1Cc2c(cc(CN3CCC4(CC3)CC4)cc2C(F)(F)F)C1=O

$$$$
C31H34F3N5O2
  MOLSOFT 03092310482D

 41 47  0  0  1  0  0  0  0  0999 V2000
    0.0000   -0.0000    0.0000 F   0  0  0
   -0.0118   -1.4881    0.0000 C   0  0  0
    1.4763   -1.4763    0.0000 F   0  0  0
   -1.5235   -1.4763    0.0000 F   0  0  0
   -0.0236   -2.9762    0.0000 C   0  0  0
   -1.3346   -3.7085    0.0000 C   0  0  0
    1.2637   -3.7085    0.0000 C   0  0  0
   -1.3464   -5.1966    0.0000 C   0  0  0
   -2.7754   -3.2360    0.0000 C   0  0  0
    1.2519   -5.1966    0.0000 C   0  0  0
   -2.7872   -5.6453    0.0000 C   0  0  0
   -0.0591   -5.9288    0.0000 C   0  0  0
   -3.6730   -4.4407    0.0000 N   0  0  0
    2.5392   -5.9288    0.0000 C   0  0  1
   -3.2597   -7.0626    0.0000 O   0  0  0
   -5.1847   -4.4289    0.0000 C   0  0  0
    3.8266   -5.1729    0.0000 N   0  0  0
    2.5274   -7.4169    0.0000 C   0  0  0
   -5.9406   -5.7162    0.0000 C   0  0  0
   -5.9406   -3.1179    0.0000 C   0  0  0
    3.8147   -3.6612    0.0000 C   0  0  0
    5.1139   -5.9052    0.0000 C   0  0  0
   -7.4523   -5.7044    0.0000 C   0  0  0
   -7.4523   -3.1061    0.0000 C   0  0  0
    5.1021   -2.9053    0.0000 C   0  0  0
    6.4012   -5.1493    0.0000 C   0  0  0
   -8.2082   -4.3935    0.0000 C   0  0  0
   -8.2082   -6.9917    0.0000 C   0  0  0
    6.3894   -3.6376    0.0000 C   0  0  0
   -7.8303   -8.4326    0.0000 C   0  0  0
   -9.6727   -7.3697    0.0000 C   0  0  0
   -8.9641   -5.6808    0.0000 C   0  0  0
    7.1216   -2.3266    0.0000 C   0  0  0
    7.8775   -3.6258    0.0000 C   0  0  0
   -9.2947   -8.8105    0.0000 O   0  0  0
  -10.4758   -5.6690    0.0000 C   0  0  0
  -11.3734   -6.8736    0.0000 N   0  0  0
  -11.3734   -4.4407    0.0000 N   0  0  0
  -12.8142   -6.4012    0.0000 N   0  0  0
  -12.8142   -4.8895    0.0000 C   0  0  0
  -10.9246   -2.9998    0.0000 C   0  0  0
  1  2  1
  2  3  1
  2  4  1
  2  5  1
  5  6  2
  5  7  1
  6  8  1
  6  9  1
  7 10  2
  8 11  1
  8 12  2
  9 13  1
 14 10  1
 11 15  2
 13 16  1
 14 17  1  1  0
 14 18  1
 16 19  2
 16 20  1
 17 21  1
 17 22  1
 19 23  1
 20 24  2
 21 25  1
 22 26  1
 23 27  2
 23 28  1
 25 29  1
 28 30  1
 28 31  1
 28 32  1
 29 33  1
 29 34  1
 30 35  1
 32 36  1
 36 37  2
 36 38  1
 37 39  1
 38 40  1
 38 41  1
 10 12  1
 11 13  1
 24 27  1
 26 29  1
 31 35  1
 33 34  1
 39 40  2
M  END
> <COMPOUND_NAMES>
Example 558a (S) (Page No: 690)

> <Reference>
WO2019148005

> <IC50_range_nM>
<100

> <smiles>
C[C@@H](c1cc2C(N(Cc2c(c1)C(F)(F)F)c1cccc(c1)C1(Cc2nncn2C)COC1)=O)N1CCC2(CC1)CC2

$$$$
C31H34F3N5O2
  MOLSOFT 03092310482D

 41 47  0  0  1  0  0  0  0  0999 V2000
    0.0000   -0.0000    0.0000 F   0  0  0
   -0.0118   -1.4881    0.0000 C   0  0  0
    1.4763   -1.4763    0.0000 F   0  0  0
   -1.5235   -1.4763    0.0000 F   0  0  0
   -0.0236   -2.9762    0.0000 C   0  0  0
   -1.3346   -3.7085    0.0000 C   0  0  0
    1.2637   -3.7085    0.0000 C   0  0  0
   -1.3464   -5.1966    0.0000 C   0  0  0
   -2.7754   -3.2360    0.0000 C   0  0  0
    1.2519   -5.1966    0.0000 C   0  0  0
   -2.7872   -5.6453    0.0000 C   0  0  0
   -0.0591   -5.9288    0.0000 C   0  0  0
   -3.6730   -4.4407    0.0000 N   0  0  0
    2.5392   -5.9288    0.0000 C   0  0  2
   -3.2597   -7.0626    0.0000 O   0  0  0
   -5.1847   -4.4289    0.0000 C   0  0  0
    3.8266   -5.1729    0.0000 N   0  0  0
    2.5274   -7.4169    0.0000 C   0  0  0
   -5.9406   -5.7162    0.0000 C   0  0  0
   -5.9406   -3.1179    0.0000 C   0  0  0
    3.8147   -3.6612    0.0000 C   0  0  0
    5.1139   -5.9052    0.0000 C   0  0  0
   -7.4523   -5.7044    0.0000 C   0  0  0
   -7.4523   -3.1061    0.0000 C   0  0  0
    5.1021   -2.9053    0.0000 C   0  0  0
    6.4012   -5.1493    0.0000 C   0  0  0
   -8.2082   -4.3935    0.0000 C   0  0  0
   -8.2082   -6.9917    0.0000 C   0  0  0
    6.3894   -3.6376    0.0000 C   0  0  0
   -7.8303   -8.4326    0.0000 C   0  0  0
   -9.6727   -7.3697    0.0000 C   0  0  0
   -8.9641   -5.6808    0.0000 C   0  0  0
    7.1216   -2.3266    0.0000 C   0  0  0
    7.8775   -3.6258    0.0000 C   0  0  0
   -9.2947   -8.8105    0.0000 O   0  0  0
  -10.4758   -5.6690    0.0000 C   0  0  0
  -11.3734   -6.8736    0.0000 N   0  0  0
  -11.3734   -4.4407    0.0000 N   0  0  0
  -12.8142   -6.4012    0.0000 N   0  0  0
  -12.8142   -4.8895    0.0000 C   0  0  0
  -10.9246   -2.9998    0.0000 C   0  0  0
  1  2  1
  2  3  1
  2  4  1
  2  5  1
  5  6  2
  5  7  1
  6  8  1
  6  9  1
  7 10  2
  8 11  1
  8 12  2
  9 13  1
 14 10  1
 11 15  2
 13 16  1
 14 17  1  6  0
 14 18  1
 16 19  2
 16 20  1
 17 21  1
 17 22  1
 19 23  1
 20 24  2
 21 25  1
 22 26  1
 23 27  2
 23 28  1
 25 29  1
 28 30  1
 28 31  1
 28 32  1
 29 33  1
 29 34  1
 30 35  1
 32 36  1
 36 37  2
 36 38  1
 37 39  1
 38 40  1
 38 41  1
 10 12  1
 11 13  1
 24 27  1
 26 29  1
 31 35  1
 33 34  1
 39 40  2
M  END
> <COMPOUND_NAMES>
Example 558b (R) (Page No: 690)

> <Reference>
WO2019148005

> <IC50_range_nM>
<100

> <smiles>
C[C@H](c1cc2C(N(Cc2c(c1)C(F)(F)F)c1cccc(c1)C1(Cc2nncn2C)COC1)=O)N1CCC2(CC1)CC2

$$$$
C30H30F5N5O2
  MOLSOFT 03092310482D

 42 48  0  0  0  0  0  0  0  0999 V2000
    0.0000   -0.0000    0.0000 F   0  0  0
   -0.3294    1.4823    0.0000 C   0  0  0
    1.0823    1.0352    0.0000 F   0  0  0
    0.1176    2.9175    0.0000 C   0  0  0
   -1.8117    1.1764    0.0000 C   0  0  0
   -0.8941    4.0468    0.0000 C   0  0  0
    1.2235    3.9292    0.0000 C   0  0  0
    1.5293    2.4705    0.0000 C   0  0  0
   -2.8234    2.3058    0.0000 N   0  0  0
   -2.3763    3.7410    0.0000 C   0  0  0
   -4.3057    1.9999    0.0000 C   0  0  0
   -4.7762    0.5882    0.0000 C   0  0  0
   -3.7880   -0.5176    0.0000 C   0  0  0
   -6.2585    0.2823    0.0000 C   0  0  0
   -4.2586   -1.9293    0.0000 C   0  0  0
   -6.7291   -1.1294    0.0000 C   0  0  0
   -5.7409   -2.2352    0.0000 C   0  0  0
   -3.2704   -3.0351    0.0000 C   0  0  0
   -8.1172   -1.7293    0.0000 C   0  0  0
   -6.5055   -3.5292    0.0000 C   0  0  0
   -4.3998   -4.0233    0.0000 F   0  0  0
   -2.2822   -4.1410    0.0000 F   0  0  0
   -2.1646   -2.0234    0.0000 F   0  0  0
   -9.4348   -0.9647    0.0000 O   0  0  0
   -7.9761   -3.2116    0.0000 N   0  0  0
   -9.1054   -4.1998    0.0000 C   0  0  0
   -8.7995   -5.6585    0.0000 C   0  0  0
  -10.5406   -3.7292    0.0000 C   0  0  0
   -9.9289   -6.6467    0.0000 C   0  0  0
  -11.6700   -4.7174    0.0000 C   0  0  0
  -11.3641   -6.1761    0.0000 C   0  0  0
   -9.6230   -8.1055    0.0000 C   0  0  0
   -8.3760   -8.9172    0.0000 C   0  0  0
  -10.4583   -9.3525    0.0000 C   0  0  0
  -11.0582   -7.6349    0.0000 C   0  0  0
   -9.2113  -10.1642    0.0000 O   0  0  0
  -12.1876   -8.6231    0.0000 C   0  0  0
  -13.6699   -8.2937    0.0000 N   0  0  0
  -12.0464  -10.1054    0.0000 N   0  0  0
  -14.4345   -9.5877    0.0000 N   0  0  0
  -13.4346  -10.7053    0.0000 C   0  0  0
  -10.7524  -10.8465    0.0000 C   0  0  0
  1  2  1
  2  3  1
  2  4  1
  2  5  1
  4  6  1
  4  7  1
  4  8  1
  5  9  1
  6 10  1
  9 11  1
 11 12  1
 12 13  2
 12 14  1
 13 15  1
 14 16  2
 15 17  2
 15 18  1
 16 19  1
 17 20  1
 18 21  1
 18 22  1
 18 23  1
 19 24  2
 19 25  1
 25 26  1
 26 27  2
 26 28  1
 27 29  1
 28 30  2
 29 31  2
 29 32  1
 32 33  1
 32 34  1
 32 35  1
 33 36  1
 35 37  1
 37 38  2
 37 39  1
 38 40  1
 39 41  1
 39 42  1
  7  8  1
  9 10  1
 16 17  1
 20 25  1
 30 31  1
 34 36  1
 40 41  2
M  END
> <COMPOUND_NAMES>
Example 636 (Page No: 735)

> <Reference>
WO2019148005

> <IC50_range_nM>
<100

> <smiles>
Cn1cnnc1CC1(COC1)c1cccc(c1)N1Cc2c(cc(CN3CCC4(CC4)C(C3)(F)F)cc2C(F)(F)F)C1=O

$$$$
C30H32F3N5O
  MOLSOFT 03092310482D

 39 45  0  0  0  0  0  0  0  0999 V2000
    0.0000   -0.0000    0.0000 F   0  0  0
    1.1048    1.0107    0.0000 C   0  0  0
    2.0920   -0.0940    0.0000 F   0  0  0
    2.2095    2.0215    0.0000 F   0  0  0
    0.0940    2.1390    0.0000 C   0  0  0
   -1.3868    1.8334    0.0000 C   0  0  0
    0.5406    3.5728    0.0000 C   0  0  0
   -2.3975    2.9617    0.0000 C   0  0  0
   -2.1507    0.5406    0.0000 C   0  0  0
   -0.4701    4.7011    0.0000 C   0  0  0
   -3.7844    2.3623    0.0000 C   0  0  0
   -1.9509    4.3955    0.0000 C   0  0  0
   -3.6316    0.8697    0.0000 N   0  0  0
   -0.0235    6.1349    0.0000 C   0  0  0
   -5.1007    3.1262    0.0000 O   0  0  0
   -4.7598   -0.1175    0.0000 C   0  0  0
    1.4338    6.4640    0.0000 N   0  0  0
   -4.4543   -1.5749    0.0000 C   0  0  0
   -6.1937    0.3526    0.0000 C   0  0  0
    2.5386    5.4767    0.0000 C   0  0  0
    2.0332    7.8508    0.0000 C   0  0  0
   -5.5825   -2.5621    0.0000 C   0  0  0
   -7.3219   -0.6346    0.0000 C   0  0  0
    3.8196    6.2407    0.0000 C   0  0  0
    3.5141    7.7098    0.0000 C   0  0  0
   -7.0163   -2.0920    0.0000 C   0  0  0
   -5.2770   -4.0194    0.0000 C   0  0  0
    5.3005    6.4052    0.0000 C   0  0  0
    4.6893    5.0419    0.0000 C   0  0  0
   -4.0312   -4.8304    0.0000 C   0  0  0
   -6.1114   -5.2652    0.0000 C   0  0  0
   -6.7108   -3.5493    0.0000 C   0  0  0
   -4.8656   -6.0761    0.0000 C   0  0  0
   -7.8390   -4.5365    0.0000 C   0  0  0
   -9.3199   -4.2075    0.0000 N   0  0  0
   -7.6980   -6.0174    0.0000 N   0  0  0
  -10.0838   -5.5003    0.0000 N   0  0  0
   -9.0848   -6.6168    0.0000 C   0  0  0
   -6.4052   -6.7578    0.0000 C   0  0  0
  1  2  1
  2  3  1
  2  4  1
  2  5  1
  5  6  2
  5  7  1
  6  8  1
  6  9  1
  7 10  2
  8 11  1
  8 12  2
  9 13  1
 10 14  1
 11 15  2
 13 16  1
 14 17  1
 16 18  2
 16 19  1
 17 20  1
 17 21  1
 18 22  1
 19 23  2
 20 24  1
 21 25  1
 22 26  2
 22 27  1
 24 28  1
 24 29  1
 27 30  1
 27 31  1
 27 32  1
 30 33  1
 32 34  1
 34 35  2
 34 36  1
 35 37  1
 36 38  1
 36 39  1
 10 12  1
 11 13  1
 23 26  1
 24 25  1
 28 29  1
 31 33  1
 37 38  2
M  END
> <COMPOUND_NAMES>
Example 695 (Page No: 773)

> <Reference>
WO2019148005

> <IC50_range_nM>
<100

> <smiles>
Cn1cnnc1CC1(CCC1)c1cccc(c1)N1Cc2c(cc(CN3CCC4(CC4)C3)cc2C(F)(F)F)C1=O

$$$$
C28H28F3N5O2
  MOLSOFT 03092310482D

 38 44  0  0  0  0  0  0  0  0999 V2000
    0.0000   -0.0000    0.0000 F   0  0  0
    1.1045    1.0105    0.0000 C   0  0  0
    2.0915   -0.0940    0.0000 F   0  0  0
    2.2090    2.0210    0.0000 F   0  0  0
    0.0940    2.1385    0.0000 C   0  0  0
   -1.3865    1.8330    0.0000 C   0  0  0
    0.5405    3.5720    0.0000 C   0  0  0
   -2.3970    2.9610    0.0000 C   0  0  0
   -2.1502    0.5405    0.0000 C   0  0  0
   -0.4700    4.7000    0.0000 C   0  0  0
   -3.7835    2.3617    0.0000 C   0  0  0
   -1.9505    4.3945    0.0000 C   0  0  0
   -3.6307    0.8695    0.0000 N   0  0  0
   -0.0235    6.1335    0.0000 C   0  0  0
   -5.0995    3.1255    0.0000 O   0  0  0
   -4.7587   -0.1175    0.0000 C   0  0  0
    1.4335    6.4625    0.0000 N   0  0  0
   -4.4532   -1.5745    0.0000 C   0  0  0
   -6.1922    0.3525    0.0000 C   0  0  0
    2.5380    5.4755    0.0000 C   0  0  0
    2.0327    7.8490    0.0000 C   0  0  0
   -5.5812   -2.5615    0.0000 C   0  0  0
   -7.3202   -0.6345    0.0000 C   0  0  0
    3.8187    6.2392    0.0000 C   0  0  1
    3.5132    7.7080    0.0000 C   0  0  2
   -7.0147   -2.0915    0.0000 C   0  0  0
   -5.2757   -4.0185    0.0000 C   0  0  0
    4.9232    7.2497    0.0000 C   0  0  0
   -4.0302   -4.8292    0.0000 C   0  0  0
   -6.1100   -5.2640    0.0000 C   0  0  0
   -6.7092   -3.5485    0.0000 C   0  0  0
   -4.8645   -6.0747    0.0000 O   0  0  0
   -7.8372   -4.5355    0.0000 C   0  0  0
   -9.3177   -4.2065    0.0000 N   0  0  0
   -7.6962   -6.0160    0.0000 N   0  0  0
  -10.0815   -5.4990    0.0000 N   0  0  0
   -9.0827   -6.6152    0.0000 C   0  0  0
   -6.4037   -6.7562    0.0000 C   0  0  0
  1  2  1
  2  3  1
  2  4  1
  2  5  1
  5  6  2
  5  7  1
  6  8  1
  6  9  1
  7 10  2
  8 11  1
  8 12  2
  9 13  1
 10 14  1
 11 15  2
 13 16  1
 14 17  1
 16 18  2
 16 19  1
 17 20  1
 17 21  1
 18 22  1
 19 23  2
 24 20  1  1  0
 25 21  1  1  0
 22 26  2
 22 27  1
 24 28  1
 27 29  1
 27 30  1
 27 31  1
 29 32  1
 31 33  1
 33 34  2
 33 35  1
 34 36  1
 35 37  1
 35 38  1
 10 12  1
 11 13  1
 23 26  1
 24 25  1
 25 28  1
 30 32  1
 36 37  2
M  END
> <COMPOUND_NAMES>
Example 429 (Stereo) (Page No: 587)

> <Reference>
WO2019148005

> <IC50_range_nM>
<100

> <smiles>
Cn1cnnc1CC1(COC1)c1cccc(c1)N1Cc2c(cc(CN3C[C@H]4C[C@H]4C3)cc2C(F)(F)F)C1=O

$$$$
C29H30F3N5O2
  MOLSOFT 03092310482D

 39 45  0  0  1  0  0  0  0  0999 V2000
    0.0000   -0.0000    0.0000 F   0  0  0
   -0.0118   -1.4880    0.0000 C   0  0  0
    1.4762   -1.4762    0.0000 F   0  0  0
   -1.5234   -1.4762    0.0000 F   0  0  0
   -0.0236   -2.9759    0.0000 C   0  0  0
   -1.3345   -3.7081    0.0000 C   0  0  0
    1.2636   -3.7081    0.0000 C   0  0  0
   -1.3463   -5.1961    0.0000 C   0  0  0
   -2.7752   -3.2357    0.0000 C   0  0  0
    1.2518   -5.1961    0.0000 C   0  0  0
   -2.7870   -5.6448    0.0000 C   0  0  0
   -0.0590   -5.9283    0.0000 C   0  0  0
   -3.6727   -4.4403    0.0000 N   0  0  0
    2.5390   -5.9283    0.0000 C   0  0  1
   -3.2594   -7.0620    0.0000 O   0  0  0
   -5.1843   -4.4285    0.0000 C   0  0  0
    3.8262   -5.1725    0.0000 N   0  0  0
    2.5272   -7.4162    0.0000 C   0  0  0
   -5.9401   -5.7157    0.0000 C   0  0  0
   -5.9401   -3.1177    0.0000 C   0  0  0
    5.1843   -5.7747    0.0000 C   0  0  0
    3.9679   -3.6727    0.0000 C   0  0  0
   -7.4517   -5.7039    0.0000 C   0  0  0
   -7.4517   -3.1058    0.0000 C   0  0  0
    6.1763   -4.6529    0.0000 C   0  0  3
    5.4205   -3.3538    0.0000 C   0  0  3
   -8.2075   -4.3931    0.0000 C   0  0  0
   -8.2075   -6.9911    0.0000 C   0  0  0
    6.9084   -3.3420    0.0000 C   0  0  0
   -7.8296   -8.4318    0.0000 C   0  0  0
   -9.6718   -7.3690    0.0000 C   0  0  0
   -8.9633   -5.6803    0.0000 C   0  0  0
   -9.2939   -8.8097    0.0000 O   0  0  0
  -10.4748   -5.6685    0.0000 C   0  0  0
  -11.3723   -6.8730    0.0000 N   0  0  0
  -11.3723   -4.4403    0.0000 N   0  0  0
  -12.8131   -6.4006    0.0000 N   0  0  0
  -12.8131   -4.8890    0.0000 C   0  0  0
  -10.9236   -2.9996    0.0000 C   0  0  0
  1  2  1
  2  3  1
  2  4  1
  2  5  1
  5  6  2
  5  7  1
  6  8  1
  6  9  1
  7 10  2
  8 11  1
  8 12  2
  9 13  1
 14 10  1
 11 15  2
 13 16  1
 14 17  1  1  0
 14 18  1
 16 19  2
 16 20  1
 17 21  1
 17 22  1
 19 23  1
 20 24  2
 25 21  1
 26 22  1
 23 27  2
 23 28  1
 25 29  1
 28 30  1
 28 31  1
 28 32  1
 30 33  1
 32 34  1
 34 35  2
 34 36  1
 35 37  1
 36 38  1
 36 39  1
 10 12  1
 11 13  1
 24 27  1
 25 26  1
 26 29  1
 31 33  1
 37 38  2
M  END
> <COMPOUND_NAMES>
Example 541a (S) (Page No: 676)

> <Reference>
WO2019148005

> <IC50_range_nM>
<100

> <smiles>
C[C@@H](c1cc2C(N(Cc2c(c1)C(F)(F)F)c1cccc(c1)C1(Cc2nncn2C)COC1)=O)N1CC2CC2C1

$$$$
C29H30F3N5O2
  MOLSOFT 03092310482D

 39 45  0  0  1  0  0  0  0  0999 V2000
    0.0000   -0.0000    0.0000 F   0  0  0
   -0.0118   -1.4880    0.0000 C   0  0  0
    1.4762   -1.4762    0.0000 F   0  0  0
   -1.5234   -1.4762    0.0000 F   0  0  0
   -0.0236   -2.9759    0.0000 C   0  0  0
   -1.3345   -3.7081    0.0000 C   0  0  0
    1.2636   -3.7081    0.0000 C   0  0  0
   -1.3463   -5.1961    0.0000 C   0  0  0
   -2.7752   -3.2357    0.0000 C   0  0  0
    1.2518   -5.1961    0.0000 C   0  0  0
   -2.7870   -5.6448    0.0000 C   0  0  0
   -0.0590   -5.9283    0.0000 C   0  0  0
   -3.6727   -4.4403    0.0000 N   0  0  0
    2.5390   -5.9283    0.0000 C   0  0  2
   -3.2594   -7.0620    0.0000 O   0  0  0
   -5.1843   -4.4285    0.0000 C   0  0  0
    3.8262   -5.1725    0.0000 N   0  0  0
    2.5272   -7.4162    0.0000 C   0  0  0
   -5.9401   -5.7157    0.0000 C   0  0  0
   -5.9401   -3.1177    0.0000 C   0  0  0
    5.1843   -5.7747    0.0000 C   0  0  0
    3.9679   -3.6727    0.0000 C   0  0  0
   -7.4517   -5.7039    0.0000 C   0  0  0
   -7.4517   -3.1058    0.0000 C   0  0  0
    6.1763   -4.6529    0.0000 C   0  0  3
    5.4205   -3.3538    0.0000 C   0  0  3
   -8.2075   -4.3931    0.0000 C   0  0  0
   -8.2075   -6.9911    0.0000 C   0  0  0
    6.9084   -3.3420    0.0000 C   0  0  0
   -7.8296   -8.4318    0.0000 C   0  0  0
   -9.6718   -7.3690    0.0000 C   0  0  0
   -8.9633   -5.6803    0.0000 C   0  0  0
   -9.2939   -8.8097    0.0000 O   0  0  0
  -10.4748   -5.6685    0.0000 C   0  0  0
  -11.3723   -6.8730    0.0000 N   0  0  0
  -11.3723   -4.4403    0.0000 N   0  0  0
  -12.8131   -6.4006    0.0000 N   0  0  0
  -12.8131   -4.8890    0.0000 C   0  0  0
  -10.9236   -2.9996    0.0000 C   0  0  0
  1  2  1
  2  3  1
  2  4  1
  2  5  1
  5  6  2
  5  7  1
  6  8  1
  6  9  1
  7 10  2
  8 11  1
  8 12  2
  9 13  1
 14 10  1
 11 15  2
 13 16  1
 14 17  1  6  0
 14 18  1
 16 19  2
 16 20  1
 17 21  1
 17 22  1
 19 23  1
 20 24  2
 25 21  1
 26 22  1
 23 27  2
 23 28  1
 25 29  1
 28 30  1
 28 31  1
 28 32  1
 30 33  1
 32 34  1
 34 35  2
 34 36  1
 35 37  1
 36 38  1
 36 39  1
 10 12  1
 11 13  1
 24 27  1
 25 26  1
 26 29  1
 31 33  1
 37 38  2
M  END
> <COMPOUND_NAMES>
Example 541b (R) (Page No: 676)

> <Reference>
WO2019148005

> <IC50_range_nM>
<100

> <smiles>
C[C@H](c1cc2C(N(Cc2c(c1)C(F)(F)F)c1cccc(c1)C1(Cc2nncn2C)COC1)=O)N1CC2CC2C1

$$$$
C29H30F3N5O2
  MOLSOFT 03092310482D

 39 45  0  0  0  0  0  0  0  0999 V2000
    0.0000   -0.0000    0.0000 F   0  0  0
    1.1042    1.0103    0.0000 C   0  0  0
    2.0910   -0.0940    0.0000 F   0  0  0
    2.2085    2.0205    0.0000 F   0  0  0
    0.0940    2.1380    0.0000 C   0  0  0
   -1.3862    1.8326    0.0000 C   0  0  0
    0.5404    3.5711    0.0000 C   0  0  0
   -2.3964    2.9603    0.0000 C   0  0  0
   -2.1497    0.5404    0.0000 C   0  0  0
   -0.4699    4.6989    0.0000 C   0  0  0
   -3.7826    2.3612    0.0000 C   0  0  0
   -1.9500    4.3934    0.0000 C   0  0  0
   -3.6299    0.8693    0.0000 N   0  0  0
   -0.0235    6.1320    0.0000 C   0  0  0
   -5.0983    3.1247    0.0000 O   0  0  0
   -4.7576   -0.1175    0.0000 C   0  0  0
    1.4332    6.4609    0.0000 N   0  0  0
   -4.4522   -1.5741    0.0000 C   0  0  0
   -6.1908    0.3524    0.0000 C   0  0  0
    2.0323    7.8471    0.0000 C   0  0  0
    2.5374    5.4742    0.0000 C   0  0  0
   -5.5799   -2.5609    0.0000 C   0  0  0
   -7.3185   -0.6343    0.0000 C   0  0  0
    3.5124    7.7061    0.0000 C   0  0  3
    3.8178    6.2377    0.0000 C   0  0  3
   -7.0131   -2.0910    0.0000 C   0  0  0
   -5.2745   -4.0175    0.0000 C   0  0  0
    4.9221    7.2597    0.0000 C   0  0  0
    3.8178    9.1863    0.0000 C   0  0  0
   -4.0293   -4.8281    0.0000 C   0  0  0
   -6.1085   -5.2627    0.0000 C   0  0  0
   -6.7076   -3.5476    0.0000 C   0  0  0
   -4.8633   -6.0733    0.0000 O   0  0  0
   -7.8354   -4.5344    0.0000 C   0  0  0
   -9.3155   -4.2055    0.0000 N   0  0  0
   -7.6944   -6.0145    0.0000 N   0  0  0
  -10.0791   -5.4977    0.0000 N   0  0  0
   -9.0806   -6.6137    0.0000 C   0  0  0
   -6.4022   -6.7546    0.0000 C   0  0  0
  1  2  1
  2  3  1
  2  4  1
  2  5  1
  5  6  2
  5  7  1
  6  8  1
  6  9  1
  7 10  2
  8 11  1
  8 12  2
  9 13  1
 10 14  1
 11 15  2
 13 16  1
 14 17  1
 16 18  2
 16 19  1
 17 20  1
 17 21  1
 18 22  1
 19 23  2
 24 20  1
 25 21  1
 22 26  2
 22 27  1
 24 28  1
 24 29  1
 27 30  1
 27 31  1
 27 32  1
 30 33  1
 32 34  1
 34 35  2
 34 36  1
 35 37  1
 36 38  1
 36 39  1
 10 12  1
 11 13  1
 23 26  1
 24 25  1
 25 28  1
 31 33  1
 37 38  2
M  END
> <COMPOUND_NAMES>
Example 491 (+/-) (Page No: 640)

> <Reference>
WO2019148005

> <IC50_range_nM>
<100

> <smiles>
CC12CC2CN(Cc2cc3C(N(Cc3c(c2)C(F)(F)F)c2cccc(c2)C2(Cc3nncn3C)COC2)=O)C1

$$$$
C28H26F5N5O2
  MOLSOFT 03092310482D

 40 46  0  0  0  0  0  0  0  0999 V2000
    0.0000   -0.0000    0.0000 F   0  0  0
   -1.4352    0.4706    0.0000 C   0  0  0
   -0.3294    1.4823    0.0000 F   0  0  0
   -2.8704    0.9411    0.0000 C   0  0  3
   -2.5646   -0.5176    0.0000 C   0  0  3
   -4.3762    1.1058    0.0000 C   0  0  0
   -3.8704   -1.2587    0.0000 C   0  0  0
   -4.9997   -0.2588    0.0000 N   0  0  0
   -6.4820   -0.5647    0.0000 C   0  0  0
   -6.9525   -1.9764    0.0000 C   0  0  0
   -5.9644   -3.0822    0.0000 C   0  0  0
   -8.4348   -2.2822    0.0000 C   0  0  0
   -6.4349   -4.4938    0.0000 C   0  0  0
   -8.9054   -3.6939    0.0000 C   0  0  0
   -7.9172   -4.7997    0.0000 C   0  0  0
   -5.4467   -5.5997    0.0000 C   0  0  0
  -10.2935   -4.2939    0.0000 C   0  0  0
   -8.6818   -6.0938    0.0000 C   0  0  0
   -6.5761   -6.5878    0.0000 F   0  0  0
   -4.4586   -6.7055    0.0000 F   0  0  0
   -4.3409   -4.5880    0.0000 F   0  0  0
  -11.6111   -3.5292    0.0000 O   0  0  0
  -10.1523   -5.7761    0.0000 N   0  0  0
  -11.2817   -6.7643    0.0000 C   0  0  0
  -10.9758   -8.2230    0.0000 C   0  0  0
  -12.7169   -6.2937    0.0000 C   0  0  0
  -12.1052   -9.2112    0.0000 C   0  0  0
  -13.8462   -7.2819    0.0000 C   0  0  0
  -13.5404   -8.7407    0.0000 C   0  0  0
  -11.7993  -10.6700    0.0000 C   0  0  0
  -10.5523  -11.4817    0.0000 C   0  0  0
  -12.6345  -11.9169    0.0000 C   0  0  0
  -13.2345  -10.1994    0.0000 C   0  0  0
  -11.3876  -12.7287    0.0000 O   0  0  0
  -14.3638  -11.1876    0.0000 C   0  0  0
  -15.8461  -10.8582    0.0000 N   0  0  0
  -14.2227  -12.6698    0.0000 N   0  0  0
  -16.6108  -12.1522    0.0000 N   0  0  0
  -15.6108  -13.2698    0.0000 C   0  0  0
  -12.9286  -13.4110    0.0000 C   0  0  0
  1  2  1
  2  3  1
  4  2  1
  5  2  1
  4  6  1
  5  7  1
  6  8  1
  8  9  1
  9 10  1
 10 11  2
 10 12  1
 11 13  1
 12 14  2
 13 15  2
 13 16  1
 14 17  1
 15 18  1
 16 19  1
 16 20  1
 16 21  1
 17 22  2
 17 23  1
 23 24  1
 24 25  2
 24 26  1
 25 27  1
 26 28  2
 27 29  2
 27 30  1
 30 31  1
 30 32  1
 30 33  1
 31 34  1
 33 35  1
 35 36  2
 35 37  1
 36 38  1
 37 39  1
 37 40  1
  4  5  1
  7  8  1
 14 15  1
 18 23  1
 28 29  1
 32 34  1
 38 39  2
M  END
> <COMPOUND_NAMES>
Example 488 (Page No: 639)

> <Reference>
WO2019148005

> <IC50_range_nM>
<100

> <smiles>
Cn1cnnc1CC1(COC1)c1cccc(c1)N1Cc2c(cc(CN3CC4C(C3)C4(F)F)cc2C(F)(F)F)C1=O

$$$$
C29H30F3N5O2
  MOLSOFT 03092310482D

 39 45  0  0  0  0  0  0  0  0999 V2000
    0.0000   -0.0000    0.0000 F   0  0  0
    1.1032    1.0093    0.0000 C   0  0  0
    2.1008   -0.0939    0.0000 F   0  0  0
    2.2064    2.0304    0.0000 F   0  0  0
    0.0822    2.1360    0.0000 C   0  0  0
   -1.3966    1.8309    0.0000 C   0  0  0
    0.5281    3.5678    0.0000 C   0  0  0
   -2.4177    2.9576    0.0000 C   0  0  0
   -2.1595    0.5399    0.0000 C   0  0  0
   -0.4929    4.6945    0.0000 C   0  0  0
   -3.8026    2.3590    0.0000 C   0  0  0
   -1.9717    4.3894    0.0000 C   0  0  0
   -3.6383    0.8685    0.0000 N   0  0  0
   -0.0469    6.1264    0.0000 C   0  0  0
   -5.1170    3.1219    0.0000 O   0  0  0
   -4.7649   -0.1291    0.0000 C   0  0  0
    1.4084    6.4550    0.0000 N   0  0  0
   -4.4598   -1.5844    0.0000 C   0  0  0
   -6.1968    0.3404    0.0000 C   0  0  0
    1.8543    7.8868    0.0000 C   0  0  0
    2.4059    5.3518    0.0000 C   0  0  0
   -5.5865   -2.5703    0.0000 C   0  0  0
   -7.3235   -0.6572    0.0000 C   0  0  0
    3.3096    8.2154    0.0000 C   0  0  3
    3.8613    5.6804    0.0000 C   0  0  0
   -7.0301   -2.1008    0.0000 C   0  0  0
   -5.2813   -4.0256    0.0000 C   0  0  0
    4.3072    7.1122    0.0000 C   0  0  3
    4.7649    8.5440    0.0000 C   0  0  0
   -4.0373   -4.8354    0.0000 C   0  0  0
   -6.1146   -5.2696    0.0000 C   0  0  0
   -6.7132   -3.5561    0.0000 C   0  0  0
   -4.8706   -6.0794    0.0000 O   0  0  0
   -7.8399   -4.5537    0.0000 C   0  0  0
   -9.3186   -4.2251    0.0000 N   0  0  0
   -7.6990   -6.0325    0.0000 N   0  0  0
  -10.0815   -5.5161    0.0000 N   0  0  0
   -9.0839   -6.6310    0.0000 C   0  0  0
   -6.4080   -6.7719    0.0000 C   0  0  0
  1  2  1
  2  3  1
  2  4  1
  2  5  1
  5  6  2
  5  7  1
  6  8  1
  6  9  1
  7 10  2
  8 11  1
  8 12  2
  9 13  1
 10 14  1
 11 15  2
 13 16  1
 14 17  1
 16 18  2
 16 19  1
 17 20  1
 17 21  1
 18 22  1
 19 23  2
 24 20  1
 21 25  1
 22 26  2
 22 27  1
 24 28  1
 24 29  1
 27 30  1
 27 31  1
 27 32  1
 30 33  1
 32 34  1
 34 35  2
 34 36  1
 35 37  1
 36 38  1
 36 39  1
 10 12  1
 11 13  1
 23 26  1
 28 25  1
 28 29  1
 31 33  1
 37 38  2
M  END
> <COMPOUND_NAMES>
Example 646 (+/-) (Page No: 740)

> <Reference>
WO2019148005

> <IC50_range_nM>
<100

> <smiles>
Cn1cnnc1CC1(COC1)c1cccc(c1)N1Cc2c(cc(CN3CCC4CC4C3)cc2C(F)(F)F)C1=O

$$$$
C29H28F5N5O2
  MOLSOFT 03092310482D

 41 47  0  0  0  0  0  0  0  0999 V2000
    0.0000   -0.0000    0.0000 F   0  0  0
    0.5415   -1.4198    0.0000 C   0  0  0
   -0.9867   -1.1672    0.0000 F   0  0  0
    1.5763   -1.9372    0.0000 C   0  0  3
    1.5642   -2.6712    0.0000 C   0  0  3
    0.9867   -3.2368    0.0000 C   0  0  0
    2.9239   -1.9854    0.0000 C   0  0  0
    1.1672   -3.8143    0.0000 C   0  0  0
   -0.0722   -3.7542    0.0000 N   0  0  0
   -1.5883   -4.0670    0.0000 C   0  0  0
   -2.0696   -5.5109    0.0000 C   0  0  0
   -1.0589   -6.6420    0.0000 C   0  0  0
   -3.5857   -5.8238    0.0000 C   0  0  0
   -1.5402   -8.0859    0.0000 C   0  0  0
   -4.0670   -7.2677    0.0000 C   0  0  0
   -3.0563   -8.3987    0.0000 C   0  0  0
   -0.5294   -9.2169    0.0000 C   0  0  0
   -5.4869   -7.8813    0.0000 C   0  0  0
   -3.8384   -9.7223    0.0000 C   0  0  0
   -1.6846  -10.2277    0.0000 F   0  0  0
    0.4813  -10.3480    0.0000 F   0  0  0
    0.6016   -8.1821    0.0000 F   0  0  0
   -6.8345   -7.0992    0.0000 O   0  0  0
   -5.3425   -9.3974    0.0000 N   0  0  0
   -6.4976  -10.4082    0.0000 C   0  0  0
   -6.1847  -11.9002    0.0000 C   0  0  0
   -7.9656   -9.9269    0.0000 C   0  0  0
   -7.3399  -12.9109    0.0000 C   0  0  0
   -9.1207  -10.9376    0.0000 C   0  0  0
   -8.8078  -12.4296    0.0000 C   0  0  0
   -7.0270  -14.4030    0.0000 C   0  0  0
   -5.7516  -15.2332    0.0000 C   0  0  0
   -7.8813  -15.6784    0.0000 C   0  0  0
   -8.4950  -13.9217    0.0000 C   0  0  0
   -6.6059  -16.5087    0.0000 O   0  0  0
   -9.6501  -14.9324    0.0000 C   0  0  0
  -11.1662  -14.5955    0.0000 N   0  0  0
   -9.5057  -16.4485    0.0000 N   0  0  0
  -11.9483  -15.9191    0.0000 N   0  0  0
  -10.9256  -17.0622    0.0000 C   0  0  0
   -8.1821  -17.2066    0.0000 C   0  0  0
  1  2  1
  2  3  1
  4  2  1
  5  2  1
  4  6  1
  4  7  1
  5  8  1
  6  9  1
  9 10  1
 10 11  1
 11 12  2
 11 13  1
 12 14  1
 13 15  2
 14 16  2
 14 17  1
 15 18  1
 16 19  1
 17 20  1
 17 21  1
 17 22  1
 18 23  2
 18 24  1
 24 25  1
 25 26  2
 25 27  1
 26 28  1
 27 29  2
 28 30  2
 28 31  1
 31 32  1
 31 33  1
 31 34  1
 32 35  1
 34 36  1
 36 37  2
 36 38  1
 37 39  1
 38 40  1
 38 41  1
  5  7  1
  8  9  1
 15 16  1
 19 24  1
 29 30  1
 33 35  1
 39 40  2
M  END
> <COMPOUND_NAMES>
Example 640 (Page No: 737)

> <Reference>
WO2019148005

> <IC50_range_nM>
<100

> <smiles>
Cn1cnnc1CC1(COC1)c1cccc(c1)N1Cc2c(cc(CN3CC4CC(C3)C4(F)F)cc2C(F)(F)F)C1=O

$$$$
C27H28F3N5O3
  MOLSOFT 03092310482D

 38 43  0  0  0  0  0  0  0  0999 V2000
    0.0000   -0.0000    0.0000 F   0  0  0
    1.1031    1.0092    0.0000 C   0  0  0
    2.1006   -0.0939    0.0000 F   0  0  0
    2.2063    2.0302    0.0000 F   0  0  0
    0.0821    2.1359    0.0000 C   0  0  0
   -1.3965    1.8307    0.0000 C   0  0  0
    0.5281    3.5676    0.0000 C   0  0  0
   -2.4175    2.9573    0.0000 C   0  0  0
   -2.1593    0.5398    0.0000 C   0  0  0
   -0.4929    4.6942    0.0000 C   0  0  0
   -3.8023    2.3588    0.0000 C   0  0  0
   -1.9716    4.3891    0.0000 C   0  0  0
   -3.6380    0.8684    0.0000 N   0  0  0
   -0.0469    6.1259    0.0000 C   0  0  0
   -5.1167    3.1216    0.0000 O   0  0  0
   -4.7646   -0.1291    0.0000 C   0  0  0
    1.4083    6.4545    0.0000 N   0  0  0
   -4.4595   -1.5843    0.0000 C   0  0  0
   -6.1963    0.3403    0.0000 C   0  0  0
    1.8542    7.8862    0.0000 C   0  0  0
    2.4058    5.3514    0.0000 C   0  0  0
   -5.5861   -2.5701    0.0000 C   0  0  0
   -7.3229   -0.6572    0.0000 C   0  0  0
    3.3094    8.2148    0.0000 C   0  0  0
    3.8610    5.6800    0.0000 C   0  0  0
   -7.0295   -2.1006    0.0000 C   0  0  0
   -5.2809   -4.0253    0.0000 C   0  0  0
    4.3069    7.1117    0.0000 O   0  0  0
   -4.0370   -4.8350    0.0000 C   0  0  0
   -6.1142   -5.2692    0.0000 C   0  0  0
   -6.7127   -3.5558    0.0000 C   0  0  0
   -4.8702   -6.0790    0.0000 O   0  0  0
   -7.8393   -4.5534    0.0000 C   0  0  0
   -9.3179   -4.2248    0.0000 N   0  0  0
   -7.6984   -6.0320    0.0000 N   0  0  0
  -10.0807   -5.5157    0.0000 N   0  0  0
   -9.0832   -6.6305    0.0000 C   0  0  0
   -6.4076   -6.7713    0.0000 C   0  0  0
  1  2  1
  2  3  1
  2  4  1
  2  5  1
  5  6  2
  5  7  1
  6  8  1
  6  9  1
  7 10  2
  8 11  1
  8 12  2
  9 13  1
 10 14  1
 11 15  2
 13 16  1
 14 17  1
 16 18  2
 16 19  1
 17 20  1
 17 21  1
 18 22  1
 19 23  2
 20 24  1
 21 25  1
 22 26  2
 22 27  1
 24 28  1
 27 29  1
 27 30  1
 27 31  1
 29 32  1
 31 33  1
 33 34  2
 33 35  1
 34 36  1
 35 37  1
 35 38  1
 10 12  1
 11 13  1
 23 26  1
 25 28  1
 30 32  1
 36 37  2
M  END
> <COMPOUND_NAMES>
Example 431 (Page No: 588)

> <Reference>
WO2019148005

> <IC50_range_nM>
<100

> <smiles>
Cn1cnnc1CC1(COC1)c1cccc(c1)N1Cc2c(cc(CN3CCOCC3)cc2C(F)(F)F)C1=O

$$$$
C28H30F3N5O3
  MOLSOFT 03092310482D

 39 44  0  0  1  0  0  0  0  0999 V2000
    0.0000   -0.0000    0.0000 F   0  0  0
    1.4879    0.0118    0.0000 C   0  0  0
    1.4761   -1.4761    0.0000 F   0  0  0
    2.9758    0.0236    0.0000 F   0  0  0
    1.4761    1.5233    0.0000 C   0  0  0
    2.7633    2.2791    0.0000 C   0  0  0
    0.1653    2.2791    0.0000 C   0  0  0
    2.7515    3.7907    0.0000 C   0  0  0
    4.1804    1.8304    0.0000 C   0  0  0
    0.1535    3.7907    0.0000 C   0  0  0
    4.1685    4.2630    0.0000 C   0  0  0
    1.4407    4.5582    0.0000 C   0  0  0
    5.0542    3.0585    0.0000 N   0  0  0
   -1.1573    4.5582    0.0000 C   0  0  0
    4.6173    5.7037    0.0000 O   0  0  0
    6.5421    3.0703    0.0000 C   0  0  0
   -2.4681    3.8143    0.0000 N   0  0  0
    7.2743    4.3811    0.0000 C   0  0  0
    7.2743    1.7831    0.0000 C   0  0  0
   -3.7789    4.5819    0.0000 C   0  0  0
   -2.4799    2.3264    0.0000 C   0  0  0
    8.7622    4.3929    0.0000 C   0  0  0
    8.7622    1.7950    0.0000 C   0  0  0
   -5.0896    3.8379    0.0000 C   0  0  1
   -3.7907    1.5942    0.0000 C   0  0  0
    9.5062    3.1057    0.0000 C   0  0  0
    9.5062    5.7037    0.0000 C   0  0  0
   -5.1014    2.3500    0.0000 O   0  0  0
   -6.4004    4.6055    0.0000 C   0  0  0
    9.1047    7.1680    0.0000 C   0  0  0
   10.9469    6.1052    0.0000 C   0  0  0
   10.2383    4.4165    0.0000 C   0  0  0
   10.5454    7.5695    0.0000 O   0  0  0
   11.7262    4.4283    0.0000 C   0  0  0
   12.6001    5.6565    0.0000 N   0  0  0
   12.6001    3.2238    0.0000 N   0  0  0
   14.0172    5.2077    0.0000 N   0  0  0
   14.0172    3.6962    0.0000 C   0  0  0
   12.1277    1.8068    0.0000 C   0  0  0
  1  2  1
  2  3  1
  2  4  1
  2  5  1
  5  6  2
  5  7  1
  6  8  1
  6  9  1
  7 10  2
  8 11  1
  8 12  2
  9 13  1
 10 14  1
 11 15  2
 13 16  1
 14 17  1
 16 18  2
 16 19  1
 17 20  1
 17 21  1
 18 22  1
 19 23  2
 24 20  1
 21 25  1
 22 26  2
 22 27  1
 24 28  1
 24 29  1  1  0
 27 30  1
 27 31  1
 27 32  1
 30 33  1
 32 34  1
 34 35  2
 34 36  1
 35 37  1
 36 38  1
 36 39  1
 10 12  1
 11 13  1
 23 26  1
 25 28  1
 31 33  1
 37 38  2
M  END
> <COMPOUND_NAMES>
Example 663a (S) (Page No: 748)

> <Reference>
WO2019148005

> <IC50_range_nM>
<100

> <smiles>
C[C@H]1CN(CCO1)Cc1cc2C(N(Cc2c(c1)C(F)(F)F)c1cccc(c1)C1(Cc2nncn2C)COC1)=O

$$$$
C28H30F3N5O3
  MOLSOFT 03092310482D

 39 44  0  0  1  0  0  0  0  0999 V2000
    0.0000   -0.0000    0.0000 F   0  0  0
    1.4879    0.0118    0.0000 C   0  0  0
    1.4761   -1.4761    0.0000 F   0  0  0
    2.9758    0.0236    0.0000 F   0  0  0
    1.4761    1.5233    0.0000 C   0  0  0
    2.7633    2.2791    0.0000 C   0  0  0
    0.1653    2.2791    0.0000 C   0  0  0
    2.7515    3.7907    0.0000 C   0  0  0
    4.1804    1.8304    0.0000 C   0  0  0
    0.1535    3.7907    0.0000 C   0  0  0
    4.1685    4.2630    0.0000 C   0  0  0
    1.4407    4.5582    0.0000 C   0  0  0
    5.0542    3.0585    0.0000 N   0  0  0
   -1.1573    4.5582    0.0000 C   0  0  0
    4.6173    5.7037    0.0000 O   0  0  0
    6.5421    3.0703    0.0000 C   0  0  0
   -2.4681    3.8143    0.0000 N   0  0  0
    7.2743    4.3811    0.0000 C   0  0  0
    7.2743    1.7831    0.0000 C   0  0  0
   -3.7789    4.5819    0.0000 C   0  0  0
   -2.4799    2.3264    0.0000 C   0  0  0
    8.7622    4.3929    0.0000 C   0  0  0
    8.7622    1.7950    0.0000 C   0  0  0
   -5.0896    3.8379    0.0000 C   0  0  2
   -3.7907    1.5942    0.0000 C   0  0  0
    9.5062    3.1057    0.0000 C   0  0  0
    9.5062    5.7037    0.0000 C   0  0  0
   -5.1014    2.3500    0.0000 O   0  0  0
   -6.4004    4.6055    0.0000 C   0  0  0
    9.1047    7.1680    0.0000 C   0  0  0
   10.9469    6.1052    0.0000 C   0  0  0
   10.2383    4.4165    0.0000 C   0  0  0
   10.5454    7.5695    0.0000 O   0  0  0
   11.7262    4.4283    0.0000 C   0  0  0
   12.6001    5.6565    0.0000 N   0  0  0
   12.6001    3.2238    0.0000 N   0  0  0
   14.0172    5.2077    0.0000 N   0  0  0
   14.0172    3.6962    0.0000 C   0  0  0
   12.1277    1.8068    0.0000 C   0  0  0
  1  2  1
  2  3  1
  2  4  1
  2  5  1
  5  6  2
  5  7  1
  6  8  1
  6  9  1
  7 10  2
  8 11  1
  8 12  2
  9 13  1
 10 14  1
 11 15  2
 13 16  1
 14 17  1
 16 18  2
 16 19  1
 17 20  1
 17 21  1
 18 22  1
 19 23  2
 24 20  1
 21 25  1
 22 26  2
 22 27  1
 24 28  1
 24 29  1  6  0
 27 30  1
 27 31  1
 27 32  1
 30 33  1
 32 34  1
 34 35  2
 34 36  1
 35 37  1
 36 38  1
 36 39  1
 10 12  1
 11 13  1
 23 26  1
 25 28  1
 31 33  1
 37 38  2
M  END
> <COMPOUND_NAMES>
Example 663b (R) (Page No: 748)

> <Reference>
WO2019148005

> <IC50_range_nM>
<100

> <smiles>
C[C@@H]1CN(CCO1)Cc1cc2C(N(Cc2c(c1)C(F)(F)F)c1cccc(c1)C1(Cc2nncn2C)COC1)=O

$$$$
C29H32F3N5O3
  MOLSOFT 03092310482D

 40 45  0  0  0  0  0  0  0  0999 V2000
    0.0000   -0.0000    0.0000 F   0  0  0
    1.4882    0.0118    0.0000 C   0  0  0
    1.4764   -1.4764    0.0000 F   0  0  0
    2.9764    0.0236    0.0000 F   0  0  0
    1.4764    1.5236    0.0000 C   0  0  0
    2.7638    2.2795    0.0000 C   0  0  0
    0.1654    2.2795    0.0000 C   0  0  0
    2.7520    3.7913    0.0000 C   0  0  0
    4.1811    1.8307    0.0000 C   0  0  0
    0.1535    3.7913    0.0000 C   0  0  0
    4.1693    4.2638    0.0000 C   0  0  0
    1.4409    4.5591    0.0000 C   0  0  0
    5.0551    3.0591    0.0000 N   0  0  0
   -1.1575    4.5591    0.0000 C   0  0  0
    4.6181    5.7047    0.0000 O   0  0  0
    6.5433    3.0709    0.0000 C   0  0  0
   -2.4685    3.8150    0.0000 N   0  0  0
    7.2756    4.3819    0.0000 C   0  0  0
    7.2756    1.7835    0.0000 C   0  0  0
   -3.7795    4.5827    0.0000 C   0  0  0
   -2.4803    2.3268    0.0000 C   0  0  0
    8.7638    4.3937    0.0000 C   0  0  0
    8.7638    1.7953    0.0000 C   0  0  0
   -5.0905    3.8386    0.0000 C   0  0  1
   -3.7913    1.5945    0.0000 C   0  0  2
    9.5079    3.1063    0.0000 C   0  0  0
    9.5079    5.7047    0.0000 C   0  0  0
   -5.1024    2.3504    0.0000 O   0  0  0
   -6.4016    4.6063    0.0000 C   0  0  0
   -3.8031    0.1063    0.0000 C   0  0  0
    9.1063    7.1693    0.0000 C   0  0  0
   10.9488    6.1063    0.0000 C   0  0  0
   10.2401    4.4173    0.0000 C   0  0  0
   10.5472    7.5709    0.0000 O   0  0  0
   11.7283    4.4291    0.0000 C   0  0  0
   12.6023    5.6575    0.0000 N   0  0  0
   12.6023    3.2244    0.0000 N   0  0  0
   14.0197    5.2087    0.0000 N   0  0  0
   14.0197    3.6968    0.0000 C   0  0  0
   12.1299    1.8071    0.0000 C   0  0  0
  1  2  1
  2  3  1
  2  4  1
  2  5  1
  5  6  2
  5  7  1
  6  8  1
  6  9  1
  7 10  2
  8 11  1
  8 12  2
  9 13  1
 10 14  1
 11 15  2
 13 16  1
 14 17  1
 16 18  2
 16 19  1
 17 20  1
 17 21  1
 18 22  1
 19 23  2
 24 20  1
 25 21  1
 22 26  2
 22 27  1
 24 28  1
 24 29  1  1  0
 25 30  1  1  0
 27 31  1
 27 32  1
 27 33  1
 31 34  1
 33 35  1
 35 36  2
 35 37  1
 36 38  1
 37 39  1
 37 40  1
 10 12  1
 11 13  1
 23 26  1
 25 28  1
 32 34  1
 38 39  2
M  END
> <COMPOUND_NAMES>
Example 664 (cis) (Page No: 748)

> <Reference>
WO2019148005

> <IC50_range_nM>
<100

> <smiles>
C[C@H]1CN(Cc2cc3C(N(Cc3c(c2)C(F)(F)F)c2cccc(c2)C2(Cc3nncn3C)COC2)=O)C[C@@H](C)O1

$$$$
C29H32F3N5O3
  MOLSOFT 03092310482D

 40 45  0  0  0  0  0  0  0  0999 V2000
    0.0000   -0.0000    0.0000 F   0  0  0
    1.1035    1.0096    0.0000 C   0  0  0
    2.1014   -0.0939    0.0000 F   0  0  0
    2.2071    2.0310    0.0000 F   0  0  0
    0.0822    2.1366    0.0000 C   0  0  0
   -1.3970    1.8314    0.0000 C   0  0  0
    0.5283    3.5689    0.0000 C   0  0  0
   -2.4184    2.9584    0.0000 C   0  0  0
   -2.1601    0.5400    0.0000 C   0  0  0
   -0.4931    4.6959    0.0000 C   0  0  0
   -3.8037    2.3597    0.0000 C   0  0  0
   -1.9723    4.3907    0.0000 C   0  0  0
   -3.6393    0.8687    0.0000 N   0  0  0
   -0.0470    6.1282    0.0000 C   0  0  0
   -5.1185    3.1228    0.0000 O   0  0  0
   -4.7663   -0.1291    0.0000 C   0  0  0
    1.4088    6.4569    0.0000 N   0  0  0
   -4.4611   -1.5849    0.0000 C   0  0  0
   -6.1986    0.3405    0.0000 C   0  0  0
    2.4066    5.3533    0.0000 C   0  0  0
    1.8549    7.8891    0.0000 C   0  0  0
   -5.5881   -2.5710    0.0000 C   0  0  0
   -7.3256   -0.6574    0.0000 C   0  0  0
    3.8624    5.6820    0.0000 C   0  0  0
    3.3106    8.2178    0.0000 C   0  0  0
   -7.0321   -2.1014    0.0000 C   0  0  0
   -5.2829   -4.0267    0.0000 C   0  0  0
    4.3085    7.1143    0.0000 O   0  0  0
    4.1676    4.2263    0.0000 C   0  0  0
    5.2829    5.2359    0.0000 C   0  0  0
   -4.0385   -4.8368    0.0000 C   0  0  0
   -6.1164   -5.2711    0.0000 C   0  0  0
   -6.7151   -3.5571    0.0000 C   0  0  0
   -4.8720   -6.0812    0.0000 O   0  0  0
   -7.8422   -4.5550    0.0000 C   0  0  0
   -9.3214   -4.2263    0.0000 N   0  0  0
   -7.7013   -6.0342    0.0000 N   0  0  0
  -10.0844   -5.5177    0.0000 N   0  0  0
   -9.0866   -6.6330    0.0000 C   0  0  0
   -6.4099   -6.7738    0.0000 C   0  0  0
  1  2  1
  2  3  1
  2  4  1
  2  5  1
  5  6  2
  5  7  1
  6  8  1
  6  9  1
  7 10  2
  8 11  1
  8 12  2
  9 13  1
 10 14  1
 11 15  2
 13 16  1
 14 17  1
 16 18  2
 16 19  1
 17 20  1
 17 21  1
 18 22  1
 19 23  2
 20 24  1
 21 25  1
 22 26  2
 22 27  1
 24 28  1
 24 29  1
 24 30  1
 27 31  1
 27 32  1
 27 33  1
 31 34  1
 33 35  1
 35 36  2
 35 37  1
 36 38  1
 37 39  1
 37 40  1
 10 12  1
 11 13  1
 23 26  1
 25 28  1
 32 34  1
 38 39  2
M  END
> <COMPOUND_NAMES>
Example 665 (Page No: 749)

> <Reference>
WO2019148005

> <IC50_range_nM>
<100

> <smiles>
CC1(C)CN(CCO1)Cc1cc2C(N(Cc2c(c1)C(F)(F)F)c1cccc(c1)C1(Cc2nncn2C)COC1)=O

$$$$
C29H32F3N5O3
  MOLSOFT 03092310482D

 40 45  0  0  0  0  0  0  0  0999 V2000
    0.0000   -0.0000    0.0000 F   0  0  0
   -0.7578   -1.2906    0.0000 C   0  0  0
   -2.0721   -0.5210    0.0000 F   0  0  0
   -1.5156   -2.5813    0.0000 F   0  0  0
    0.5328   -2.0248    0.0000 C   0  0  0
    0.5210   -3.5167    0.0000 C   0  0  0
    1.8235   -1.2670    0.0000 C   0  0  0
    1.8116   -4.2508    0.0000 C   0  0  0
   -0.6039   -4.5113    0.0000 C   0  0  0
    3.1141   -2.0011    0.0000 C   0  0  0
    1.4919   -5.7072    0.0000 C   0  0  0
    3.1023   -3.4930    0.0000 C   0  0  0
    0.0000   -5.8730    0.0000 N   0  0  0
    4.4047   -1.2433    0.0000 C   0  0  0
    2.4865   -6.8084    0.0000 O   0  0  0
   -0.7578   -7.1636    0.0000 C   0  0  0
    4.3929    0.2723    0.0000 N   0  0  0
   -0.0237   -8.4542    0.0000 C   0  0  0
   -2.2734   -7.1518    0.0000 C   0  0  0
    3.0786    1.0301    0.0000 C   0  0  0
    5.6835    1.0301    0.0000 C   0  0  0
   -0.7815   -9.7449    0.0000 C   0  0  0
   -3.0312   -8.4424    0.0000 C   0  0  0
    3.0667    2.5457    0.0000 C   0  0  3
    5.6717    2.5457    0.0000 C   0  0  0
   -2.2971   -9.7330    0.0000 C   0  0  0
   -0.0474  -11.0355    0.0000 C   0  0  0
    1.7524    3.3035    0.0000 O   0  0  0
    4.3574    3.3035    0.0000 C   0  0  0
    1.3972  -11.4144    0.0000 C   0  0  0
   -0.4499  -12.4801    0.0000 C   0  0  0
   -1.5630  -11.0237    0.0000 C   0  0  0
    0.4381    2.5694    0.0000 C   0  0  0
    0.9946  -12.8590    0.0000 O   0  0  0
   -2.3208  -12.3143    0.0000 C   0  0  0
   -1.7169  -13.6760    0.0000 N   0  0  0
   -3.8245  -12.4564    0.0000 N   0  0  0
   -2.8418  -14.6706    0.0000 N   0  0  0
   -4.1442  -13.9128    0.0000 C   0  0  0
   -4.8428  -11.3315    0.0000 C   0  0  0
  1  2  1
  2  3  1
  2  4  1
  2  5  1
  5  6  2
  5  7  1
  6  8  1
  6  9  1
  7 10  2
  8 11  1
  8 12  2
  9 13  1
 10 14  1
 11 15  2
 13 16  1
 14 17  1
 16 18  2
 16 19  1
 17 20  1
 17 21  1
 18 22  1
 19 23  2
 24 20  1
 21 25  1
 22 26  2
 22 27  1
 24 28  1
 24 29  1
 27 30  1
 27 31  1
 27 32  1
 28 33  1
 30 34  1
 32 35  1
 35 36  2
 35 37  1
 36 38  1
 37 39  1
 37 40  1
 10 12  1
 11 13  1
 23 26  1
 25 29  1
 31 34  1
 38 39  2
M  END
> <COMPOUND_NAMES>
Example 637 (+/-) (Page No: 735)

> <Reference>
WO2019148005

> <IC50_range_nM>
<100

> <smiles>
Cn1cnnc1CC1(COC1)c1cccc(c1)N1Cc2c(cc(CN3CCCC(C3)OC)cc2C(F)(F)F)C1=O

$$$$
C30H34F3N5O3
  MOLSOFT 03092310482D

 41 46  0  0  0  0  0  0  0  0999 V2000
    0.0000   -0.0000    0.0000 F   0  0  0
   -0.7576   -1.2903    0.0000 C   0  0  0
   -2.0716   -0.5209    0.0000 F   0  0  0
   -1.5152   -2.5806    0.0000 F   0  0  0
    0.5327   -2.0243    0.0000 C   0  0  0
    0.5209   -3.5158    0.0000 C   0  0  0
    1.8230   -1.2666    0.0000 C   0  0  0
    1.8112   -4.2497    0.0000 C   0  0  0
   -0.6037   -4.5102    0.0000 C   0  0  0
    3.1133   -2.0006    0.0000 C   0  0  0
    1.4916   -5.7058    0.0000 C   0  0  0
    3.1015   -3.4921    0.0000 C   0  0  0
    0.0000   -5.8715    0.0000 N   0  0  0
    4.4036   -1.2430    0.0000 C   0  0  0
    2.4859   -6.8067    0.0000 O   0  0  0
   -0.7576   -7.1618    0.0000 C   0  0  0
    4.3918    0.2723    0.0000 N   0  0  0
   -0.0237   -8.4521    0.0000 C   0  0  0
   -2.2728   -7.1500    0.0000 C   0  0  0
    3.0778    1.0299    0.0000 C   0  0  0
    5.6821    1.0299    0.0000 C   0  0  0
   -0.7813   -9.7425    0.0000 C   0  0  0
   -3.0305   -8.4403    0.0000 C   0  0  0
    3.0660    2.5451    0.0000 C   0  0  3
    5.6703    2.5451    0.0000 C   0  0  0
   -2.2965   -9.7306    0.0000 C   0  0  0
   -0.0474  -11.0328    0.0000 C   0  0  0
    1.7520    3.3027    0.0000 O   0  0  0
    4.3563    3.3027    0.0000 C   0  0  0
    1.3969  -11.4116    0.0000 C   0  0  0
   -0.4498  -12.4770    0.0000 C   0  0  0
   -1.5626  -11.0209    0.0000 C   0  0  0
    0.4380    2.5688    0.0000 C   0  0  0
    0.9944  -12.8558    0.0000 O   0  0  0
   -2.3202  -12.3112    0.0000 C   0  0  0
   -0.8760    3.3264    0.0000 C   0  0  0
   -1.7165  -13.6726    0.0000 N   0  0  0
   -3.8236  -12.4533    0.0000 N   0  0  0
   -2.8411  -14.6669    0.0000 N   0  0  0
   -4.1432  -13.9093    0.0000 C   0  0  0
   -4.8416  -11.3287    0.0000 C   0  0  0
  1  2  1
  2  3  1
  2  4  1
  2  5  1
  5  6  2
  5  7  1
  6  8  1
  6  9  1
  7 10  2
  8 11  1
  8 12  2
  9 13  1
 10 14  1
 11 15  2
 13 16  1
 14 17  1
 16 18  2
 16 19  1
 17 20  1
 17 21  1
 18 22  1
 19 23  2
 24 20  1
 21 25  1
 22 26  2
 22 27  1
 24 28  1
 24 29  1
 27 30  1
 27 31  1
 27 32  1
 28 33  1
 30 34  1
 32 35  1
 33 36  1
 35 37  2
 35 38  1
 37 39  1
 38 40  1
 38 41  1
 10 12  1
 11 13  1
 23 26  1
 25 29  1
 31 34  1
 39 40  2
M  END
> <COMPOUND_NAMES>
Example 629 (+/-) (Page No: 732)

> <Reference>
WO2019148005

> <IC50_range_nM>
<100

> <smiles>
CCOC1CCCN(C1)Cc1cc2C(N(Cc2c(c1)C(F)(F)F)c1cccc(c1)C1(Cc2nncn2C)COC1)=O

$$$$
C30H34F3N5O3
  MOLSOFT 03092310482D

 41 46  0  0  0  0  0  0  0  0999 V2000
    0.0000   -0.0000    0.0000 F   0  0  0
    1.4885    0.0118    0.0000 C   0  0  0
    1.4767   -1.4767    0.0000 F   0  0  0
    2.9771    0.0236    0.0000 F   0  0  0
    1.4767    1.5240    0.0000 C   0  0  0
    2.7644    2.2801    0.0000 C   0  0  0
    0.1654    2.2801    0.0000 C   0  0  0
    2.7526    3.7922    0.0000 C   0  0  0
    4.1821    1.8311    0.0000 C   0  0  0
    0.1536    3.7922    0.0000 C   0  0  0
    4.1703    4.2648    0.0000 C   0  0  0
    1.4413    4.5483    0.0000 C   0  0  0
    5.0563    3.0598    0.0000 N   0  0  0
   -1.1577    4.5483    0.0000 C   0  0  0
    4.6192    5.7061    0.0000 O   0  0  0
    6.5448    3.0716    0.0000 C   0  0  0
   -2.4691    3.8040    0.0000 N   0  0  0
    7.2773    4.3829    0.0000 C   0  0  0
    7.2773    1.7839    0.0000 C   0  0  0
   -3.7804    4.5601    0.0000 C   0  0  0
   -2.4809    2.3155    0.0000 C   0  0  0
    8.7658    4.3947    0.0000 C   0  0  0
    8.7658    1.7957    0.0000 C   0  0  0
   -5.0917    3.8158    0.0000 C   0  0  3
   -3.7922    1.5830    0.0000 C   0  0  0
    9.4983    3.1070    0.0000 C   0  0  0
    9.4983    5.7061    0.0000 C   0  0  0
   -5.1035    2.3273    0.0000 O   0  0  0
   -6.4031    4.5719    0.0000 C   0  0  0
    9.0966    7.1710    0.0000 C   0  0  0
   10.9396    6.1077    0.0000 C   0  0  0
   10.2425    4.4184    0.0000 C   0  0  0
   -7.7144    3.8277    0.0000 C   0  0  0
   -6.4149    6.0841    0.0000 C   0  0  0
   10.5379    7.5726    0.0000 O   0  0  0
   11.7311    4.4302    0.0000 C   0  0  0
   12.6053    5.6588    0.0000 N   0  0  0
   12.6053    3.2252    0.0000 N   0  0  0
   14.0229    5.2099    0.0000 N   0  0  0
   14.0229    3.6977    0.0000 C   0  0  0
   12.1327    1.8075    0.0000 C   0  0  0
  1  2  1
  2  3  1
  2  4  1
  2  5  1
  5  6  2
  5  7  1
  6  8  1
  6  9  1
  7 10  2
  8 11  1
  8 12  2
  9 13  1
 10 14  1
 11 15  2
 13 16  1
 14 17  1
 16 18  2
 16 19  1
 17 20  1
 17 21  1
 18 22  1
 19 23  2
 24 20  1
 21 25  1
 22 26  2
 22 27  1
 24 28  1
 24 29  1
 27 30  1
 27 31  1
 27 32  1
 29 33  1
 29 34  1
 30 35  1
 32 36  1
 36 37  2
 36 38  1
 37 39  1
 38 40  1
 38 41  1
 10 12  1
 11 13  1
 23 26  1
 25 28  1
 31 35  1
 39 40  2
M  END
> <COMPOUND_NAMES>
Example 716 (+/-) (Page No: 788)

> <Reference>
WO2019148005

> <IC50_range_nM>
<100

> <smiles>
CC(C)C1CN(CCO1)Cc1cc2C(N(Cc2c(c1)C(F)(F)F)c1cccc(c1)C1(Cc2nncn2C)COC1)=O

$$$$
C30H32F3N5O3
  MOLSOFT 03092310482D

 41 47  0  0  0  0  0  0  0  0999 V2000
    0.0000   -0.0000    0.0000 F   0  0  0
    1.1040    1.0100    0.0000 C   0  0  0
    2.1022   -0.0940    0.0000 F   0  0  0
    2.2079    2.0318    0.0000 F   0  0  0
    0.0822    2.1375    0.0000 C   0  0  0
   -1.3976    1.8321    0.0000 C   0  0  0
    0.5285    3.5703    0.0000 C   0  0  0
   -2.4193    2.9596    0.0000 C   0  0  0
   -2.1610    0.5402    0.0000 C   0  0  0
   -0.4933    4.6977    0.0000 C   0  0  0
   -3.8052    2.3606    0.0000 C   0  0  0
   -1.9731    4.3924    0.0000 C   0  0  0
   -3.6408    0.8691    0.0000 N   0  0  0
   -0.0470    6.1306    0.0000 C   0  0  0
   -5.1205    3.1240    0.0000 O   0  0  0
   -4.7682   -0.1292    0.0000 C   0  0  0
    1.4093    6.4594    0.0000 N   0  0  0
   -4.4629   -1.5855    0.0000 C   0  0  0
   -6.2010    0.3406    0.0000 C   0  0  0
    2.4076    5.3554    0.0000 C   0  0  0
    1.8556    7.8922    0.0000 C   0  0  0
   -5.5903   -2.5720    0.0000 C   0  0  0
   -7.3285   -0.6577    0.0000 C   0  0  0
    3.8639    5.6843    0.0000 C   0  0  3
    3.3119    8.2211    0.0000 C   0  0  0
   -7.0349   -2.1022    0.0000 C   0  0  0
   -5.2850   -4.0283    0.0000 C   0  0  0
    4.3102    7.1171    0.0000 O   0  0  0
    4.8622    4.5803    0.0000 C   0  0  0
   -4.0401   -4.8387    0.0000 C   0  0  0
   -6.1188   -5.2732    0.0000 C   0  0  0
   -6.7178   -3.5585    0.0000 C   0  0  0
    6.2715    4.1340    0.0000 C   0  0  0
    5.1675    3.1240    0.0000 C   0  0  0
   -4.8739   -6.0836    0.0000 O   0  0  0
   -7.8452   -4.5568    0.0000 C   0  0  0
   -9.3250   -4.2280    0.0000 N   0  0  0
   -7.7043   -6.0366    0.0000 N   0  0  0
  -10.0884   -5.5199    0.0000 N   0  0  0
   -9.0901   -6.6356    0.0000 C   0  0  0
   -6.4124   -6.7765    0.0000 C   0  0  0
  1  2  1
  2  3  1
  2  4  1
  2  5  1
  5  6  2
  5  7  1
  6  8  1
  6  9  1
  7 10  2
  8 11  1
  8 12  2
  9 13  1
 10 14  1
 11 15  2
 13 16  1
 14 17  1
 16 18  2
 16 19  1
 17 20  1
 17 21  1
 18 22  1
 19 23  2
 24 20  1
 21 25  1
 22 26  2
 22 27  1
 24 28  1
 24 29  1
 27 30  1
 27 31  1
 27 32  1
 29 33  1
 29 34  1
 30 35  1
 32 36  1
 36 37  2
 36 38  1
 37 39  1
 38 40  1
 38 41  1
 10 12  1
 11 13  1
 23 26  1
 25 28  1
 31 35  1
 33 34  1
 39 40  2
M  END
> <COMPOUND_NAMES>
Example 718 (+/-) (Page No: 789)

> <Reference>
WO2019148005

> <IC50_range_nM>
<100

> <smiles>
Cn1cnnc1CC1(COC1)c1cccc(c1)N1Cc2c(cc(CN3CCOC(C3)C3CC3)cc2C(F)(F)F)C1=O

$$$$
C31H34F3N5O3
  MOLSOFT 03092310482D

 42 48  0  0  0  0  0  0  0  0999 V2000
    0.0000   -0.0000    0.0000 F   0  0  0
    1.1100    1.0156    0.0000 C   0  0  0
    2.1020   -0.0827    0.0000 F   0  0  0
    2.2201    2.0311    0.0000 F   0  0  0
    0.0945    2.1492    0.0000 C   0  0  0
   -1.3816    1.8540    0.0000 C   0  0  0
    0.5432    3.5899    0.0000 C   0  0  0
   -2.3972    2.9876    0.0000 C   0  0  0
   -2.1492    0.5668    0.0000 C   0  0  0
   -0.4724    4.7235    0.0000 C   0  0  0
   -3.7788    2.3854    0.0000 C   0  0  0
   -1.9485    4.4283    0.0000 C   0  0  0
   -3.6253    0.8857    0.0000 N   0  0  0
   -0.0236    6.1642    0.0000 C   0  0  0
   -5.0896    3.1529    0.0000 O   0  0  0
   -4.7589   -0.1063    0.0000 C   0  0  0
    1.4289    6.4830    0.0000 N   0  0  0
   -4.4637   -1.5588    0.0000 C   0  0  0
   -6.1996    0.3661    0.0000 C   0  0  0
    2.4208    5.3730    0.0000 C   0  0  0
    1.8776    7.9237    0.0000 C   0  0  0
   -5.5856   -2.5507    0.0000 C   0  0  0
   -7.3215   -0.6259    0.0000 C   0  0  0
    3.8733    5.6918    0.0000 C   0  0  3
    3.3301    8.2425    0.0000 C   0  0  0
   -7.0262   -2.0783    0.0000 C   0  0  0
   -5.2903   -4.0032    0.0000 C   0  0  0
    4.3220    7.1325    0.0000 O   0  0  0
    4.8652    4.5818    0.0000 C   0  0  0
   -4.0386   -4.8062    0.0000 C   0  0  0
   -6.1170   -5.2549    0.0000 C   0  0  0
   -6.7310   -3.5308    0.0000 C   0  0  0
    6.3531    4.5110    0.0000 C   0  0  0
    4.7708    3.0939    0.0000 C   0  0  0
   -4.8652   -6.0579    0.0000 O   0  0  0
   -7.8647   -4.5228    0.0000 C   0  0  0
    6.2587    3.0231    0.0000 C   0  0  0
   -9.3408   -4.2039    0.0000 N   0  0  0
   -7.7229   -5.9989    0.0000 N   0  0  0
  -10.1083   -5.4911    0.0000 N   0  0  0
   -9.1046   -6.6011    0.0000 C   0  0  0
   -6.4358   -6.7428    0.0000 C   0  0  0
  1  2  1
  2  3  1
  2  4  1
  2  5  1
  5  6  2
  5  7  1
  6  8  1
  6  9  1
  7 10  2
  8 11  1
  8 12  2
  9 13  1
 10 14  1
 11 15  2
 13 16  1
 14 17  1
 16 18  2
 16 19  1
 17 20  1
 17 21  1
 18 22  1
 19 23  2
 24 20  1
 21 25  1
 22 26  2
 22 27  1
 24 28  1
 24 29  1
 27 30  1
 27 31  1
 27 32  1
 29 33  1
 29 34  1
 30 35  1
 32 36  1
 33 37  1
 36 38  2
 36 39  1
 38 40  1
 39 41  1
 39 42  1
 10 12  1
 11 13  1
 23 26  1
 25 28  1
 31 35  1
 34 37  1
 40 41  2
M  END
> <COMPOUND_NAMES>
Example 719 (+/-) (Page No: 789)

> <Reference>
WO2019148005

> <IC50_range_nM>
<100

> <smiles>
Cn1cnnc1CC1(COC1)c1cccc(c1)N1Cc2c(cc(CN3CCOC(C3)C3CCC3)cc2C(F)(F)F)C1=O

$$$$
C29H32F3N5O4
  MOLSOFT 03092310482D

 41 46  0  0  0  0  0  0  0  0999 V2000
    0.0000   -0.0000    0.0000 F   0  0  0
    1.1038    1.0098    0.0000 C   0  0  0
    2.1019   -0.0939    0.0000 F   0  0  0
    2.2076    2.0314    0.0000 F   0  0  0
    0.0822    2.1371    0.0000 C   0  0  0
   -1.3973    1.8318    0.0000 C   0  0  0
    0.5284    3.5697    0.0000 C   0  0  0
   -2.4189    2.9591    0.0000 C   0  0  0
   -2.1606    0.5402    0.0000 C   0  0  0
   -0.4932    4.6970    0.0000 C   0  0  0
   -3.8045    2.3602    0.0000 C   0  0  0
   -1.9727    4.3917    0.0000 C   0  0  0
   -3.6402    0.8689    0.0000 N   0  0  0
   -0.0470    6.1295    0.0000 C   0  0  0
   -5.1197    3.1235    0.0000 O   0  0  0
   -4.7674   -0.1292    0.0000 C   0  0  0
    1.4091    6.4583    0.0000 N   0  0  0
   -4.4621   -1.5852    0.0000 C   0  0  0
   -6.2000    0.3405    0.0000 C   0  0  0
    2.4072    5.3545    0.0000 C   0  0  0
    1.8553    7.8909    0.0000 C   0  0  0
   -5.5894   -2.5716    0.0000 C   0  0  0
   -7.3273   -0.6576    0.0000 C   0  0  0
    3.8633    5.6833    0.0000 C   0  0  3
    3.3114    8.2197    0.0000 C   0  0  0
   -7.0337   -2.1019    0.0000 C   0  0  0
   -5.2841   -4.0277    0.0000 C   0  0  0
    4.3095    7.1159    0.0000 O   0  0  0
    4.8614    4.5795    0.0000 C   0  0  0
   -4.0394   -4.8379    0.0000 C   0  0  0
   -6.1178   -5.2724    0.0000 C   0  0  0
   -6.7167   -3.5580    0.0000 C   0  0  0
    4.3917    3.1705    0.0000 C   0  0  0
   -4.8731   -6.0826    0.0000 O   0  0  0
   -7.8439   -4.5561    0.0000 C   0  0  0
    5.3898    2.0667    0.0000 O   0  0  0
   -9.3235   -4.2273    0.0000 N   0  0  0
   -7.7030   -6.0356    0.0000 N   0  0  0
  -10.0867   -5.5189    0.0000 N   0  0  0
   -9.0886   -6.6345    0.0000 C   0  0  0
   -6.4114   -6.7754    0.0000 C   0  0  0
  1  2  1
  2  3  1
  2  4  1
  2  5  1
  5  6  2
  5  7  1
  6  8  1
  6  9  1
  7 10  2
  8 11  1
  8 12  2
  9 13  1
 10 14  1
 11 15  2
 13 16  1
 14 17  1
 16 18  2
 16 19  1
 17 20  1
 17 21  1
 18 22  1
 19 23  2
 24 20  1
 21 25  1
 22 26  2
 22 27  1
 24 28  1
 24 29  1
 27 30  1
 27 31  1
 27 32  1
 29 33  1
 30 34  1
 32 35  1
 33 36  1
 35 37  2
 35 38  1
 37 39  1
 38 40  1
 38 41  1
 10 12  1
 11 13  1
 23 26  1
 25 28  1
 31 34  1
 39 40  2
M  END
> <COMPOUND_NAMES>
Example 717 (+/-) (Page No: 788)

> <Reference>
WO2019148005

> <IC50_range_nM>
<100

> <smiles>
Cn1cnnc1CC1(COC1)c1cccc(c1)N1Cc2c(cc(CN3CCOC(CCO)C3)cc2C(F)(F)F)C1=O

$$$$
C28H29F4N5O3
  MOLSOFT 03092310482D

 40 45  0  0  0  0  0  0  0  0999 V2000
    0.0000   -0.0000    0.0000 F   0  0  0
    1.1036    1.0097    0.0000 C   0  0  0
    2.1015   -0.0939    0.0000 F   0  0  0
    2.2072    2.0311    0.0000 F   0  0  0
    0.0822    2.1367    0.0000 C   0  0  0
   -1.3971    1.8315    0.0000 C   0  0  0
    0.5283    3.5691    0.0000 C   0  0  0
   -2.4185    2.9586    0.0000 C   0  0  0
   -2.1602    0.5401    0.0000 C   0  0  0
   -0.4931    4.6961    0.0000 C   0  0  0
   -3.8039    2.3598    0.0000 C   0  0  0
   -1.9724    4.3909    0.0000 C   0  0  0
   -3.6395    0.8688    0.0000 N   0  0  0
   -0.0470    6.1285    0.0000 C   0  0  0
   -5.1188    3.1229    0.0000 O   0  0  0
   -4.7666   -0.1291    0.0000 C   0  0  0
    1.4088    6.4572    0.0000 N   0  0  0
   -4.4613   -1.5849    0.0000 C   0  0  0
   -6.1989    0.3405    0.0000 C   0  0  0
    2.4068    5.3536    0.0000 C   0  0  0
    1.8550    7.8895    0.0000 C   0  0  0
   -5.5884   -2.5711    0.0000 C   0  0  0
   -7.3260   -0.6575    0.0000 C   0  0  0
    3.8626    5.6823    0.0000 C   0  0  3
    3.3108    8.2183    0.0000 C   0  0  0
   -7.0325   -2.1015    0.0000 C   0  0  0
   -5.2832   -4.0269    0.0000 C   0  0  0
    4.3087    7.1147    0.0000 O   0  0  0
    4.8605    4.5787    0.0000 C   0  0  0
   -4.0387   -4.8370    0.0000 C   0  0  0
   -6.1167   -5.2714    0.0000 C   0  0  0
   -6.7155   -3.5573    0.0000 C   0  0  0
    4.3909    3.1699    0.0000 F   0  0  0
   -4.8723   -6.0815    0.0000 O   0  0  0
   -7.8426   -4.5553    0.0000 C   0  0  0
   -9.3219   -4.2265    0.0000 N   0  0  0
   -7.7017   -6.0345    0.0000 N   0  0  0
  -10.0850   -5.5180    0.0000 N   0  0  0
   -9.0870   -6.6333    0.0000 C   0  0  0
   -6.4102   -6.7742    0.0000 C   0  0  0
  1  2  1
  2  3  1
  2  4  1
  2  5  1
  5  6  2
  5  7  1
  6  8  1
  6  9  1
  7 10  2
  8 11  1
  8 12  2
  9 13  1
 10 14  1
 11 15  2
 13 16  1
 14 17  1
 16 18  2
 16 19  1
 17 20  1
 17 21  1
 18 22  1
 19 23  2
 24 20  1
 21 25  1
 22 26  2
 22 27  1
 24 28  1
 24 29  1
 27 30  1
 27 31  1
 27 32  1
 29 33  1
 30 34  1
 32 35  1
 35 36  2
 35 37  1
 36 38  1
 37 39  1
 37 40  1
 10 12  1
 11 13  1
 23 26  1
 25 28  1
 31 34  1
 38 39  2
M  END
> <COMPOUND_NAMES>
Example 714 (+/-) (Page No: 787)

> <Reference>
WO2019148005

> <IC50_range_nM>
<100

> <smiles>
Cn1cnnc1CC1(COC1)c1cccc(c1)N1Cc2c(cc(CN3CCOC(C3)CF)cc2C(F)(F)F)C1=O

$$$$
C28H28F5N5O3
  MOLSOFT 03092310482D

 41 46  0  0  0  0  0  0  0  0999 V2000
    0.0000   -0.0000    0.0000 F   0  0  0
    1.1037    1.0098    0.0000 C   0  0  0
    2.1018   -0.0939    0.0000 F   0  0  0
    2.2074    2.0313    0.0000 F   0  0  0
    0.0822    2.1370    0.0000 C   0  0  0
   -1.3973    1.8317    0.0000 C   0  0  0
    0.5284    3.5695    0.0000 C   0  0  0
   -2.4188    2.9589    0.0000 C   0  0  0
   -2.1605    0.5401    0.0000 C   0  0  0
   -0.4931    4.6967    0.0000 C   0  0  0
   -3.8043    2.3601    0.0000 C   0  0  0
   -1.9726    4.3914    0.0000 C   0  0  0
   -3.6399    0.8689    0.0000 N   0  0  0
   -0.0470    6.1291    0.0000 C   0  0  0
   -5.1194    3.1233    0.0000 O   0  0  0
   -4.7671   -0.1292    0.0000 C   0  0  0
    1.4090    6.4579    0.0000 N   0  0  0
   -4.4618   -1.5851    0.0000 C   0  0  0
   -6.1996    0.3405    0.0000 C   0  0  0
    2.4070    5.3542    0.0000 C   0  0  0
    1.8552    7.8904    0.0000 C   0  0  0
   -5.5890   -2.5714    0.0000 C   0  0  0
   -7.3268   -0.6575    0.0000 C   0  0  0
    3.8630    5.6830    0.0000 C   0  0  3
    3.3111    8.2192    0.0000 C   0  0  0
   -7.0332   -2.1018    0.0000 C   0  0  0
   -5.2837   -4.0274    0.0000 C   0  0  0
    4.3092    7.1154    0.0000 O   0  0  0
    4.8610    4.5792    0.0000 C   0  0  0
   -4.0391   -4.8376    0.0000 C   0  0  0
   -6.1174   -5.2720    0.0000 C   0  0  0
   -6.7162   -3.5577    0.0000 C   0  0  0
    4.3914    3.1702    0.0000 F   0  0  0
    6.3170    4.9080    0.0000 F   0  0  0
   -4.8728   -6.0822    0.0000 O   0  0  0
   -7.8434   -4.5558    0.0000 C   0  0  0
   -9.3229   -4.2270    0.0000 N   0  0  0
   -7.7025   -6.0352    0.0000 N   0  0  0
  -10.0861   -5.5186    0.0000 N   0  0  0
   -9.0880   -6.6340    0.0000 C   0  0  0
   -6.4109   -6.7749    0.0000 C   0  0  0
  1  2  1
  2  3  1
  2  4  1
  2  5  1
  5  6  2
  5  7  1
  6  8  1
  6  9  1
  7 10  2
  8 11  1
  8 12  2
  9 13  1
 10 14  1
 11 15  2
 13 16  1
 14 17  1
 16 18  2
 16 19  1
 17 20  1
 17 21  1
 18 22  1
 19 23  2
 24 20  1
 21 25  1
 22 26  2
 22 27  1
 24 28  1
 24 29  1
 27 30  1
 27 31  1
 27 32  1
 29 33  1
 29 34  1
 30 35  1
 32 36  1
 36 37  2
 36 38  1
 37 39  1
 38 40  1
 38 41  1
 10 12  1
 11 13  1
 23 26  1
 25 28  1
 31 35  1
 39 40  2
M  END
> <COMPOUND_NAMES>
Example 630 (+/-) (Page No: 732)

> <Reference>
WO2019148005

> <IC50_range_nM>
<100

> <smiles>
Cn1cnnc1CC1(COC1)c1cccc(c1)N1Cc2c(cc(CN3CCOC(C3)C(F)F)cc2C(F)(F)F)C1=O

$$$$
C28H27F6N5O3
  MOLSOFT 03092310482D

 42 47  0  0  1  0  0  0  0  0999 V2000
    0.0000   -0.0000    0.0000 F   0  0  0
    1.1035    1.0096    0.0000 C   0  0  0
    2.1014   -0.0939    0.0000 F   0  0  0
    2.2071    2.0310    0.0000 F   0  0  0
    0.0822    2.1366    0.0000 C   0  0  0
   -1.3970    1.8314    0.0000 C   0  0  0
    0.5283    3.5689    0.0000 C   0  0  0
   -2.4184    2.9584    0.0000 C   0  0  0
   -2.1601    0.5400    0.0000 C   0  0  0
   -0.4931    4.6959    0.0000 C   0  0  0
   -3.8037    2.3597    0.0000 C   0  0  0
   -1.9723    4.3906    0.0000 C   0  0  0
   -3.6393    0.8687    0.0000 N   0  0  0
   -0.0470    6.1281    0.0000 C   0  0  0
   -5.1185    3.1228    0.0000 O   0  0  0
   -4.7663   -0.1291    0.0000 C   0  0  0
    1.4088    6.4568    0.0000 N   0  0  0
   -4.4611   -1.5849    0.0000 C   0  0  0
   -6.1985    0.3405    0.0000 C   0  0  0
    2.4066    5.3533    0.0000 C   0  0  0
    1.8549    7.8891    0.0000 C   0  0  0
   -5.5881   -2.5710    0.0000 C   0  0  0
   -7.3256   -0.6574    0.0000 C   0  0  0
    3.8624    5.6820    0.0000 C   0  0  2
    3.3106    8.2178    0.0000 C   0  0  0
   -7.0321   -2.1014    0.0000 C   0  0  0
   -5.2829   -4.0267    0.0000 C   0  0  0
    4.3085    7.1142    0.0000 O   0  0  0
    4.8602    4.5785    0.0000 C   0  0  0
   -4.0384   -4.8367    0.0000 C   0  0  0
   -6.1164   -5.2711    0.0000 C   0  0  0
   -6.7151   -3.5571    0.0000 C   0  0  0
    3.7332    3.5923    0.0000 F   0  0  0
    5.8581    3.4749    0.0000 F   0  0  0
    5.9638    5.5998    0.0000 F   0  0  0
   -4.8720   -6.0811    0.0000 O   0  0  0
   -7.8421   -4.5550    0.0000 C   0  0  0
   -9.3213   -4.2263    0.0000 N   0  0  0
   -7.7012   -6.0342    0.0000 N   0  0  0
  -10.0844   -5.5176    0.0000 N   0  0  0
   -9.0865   -6.6329    0.0000 C   0  0  0
   -6.4099   -6.7738    0.0000 C   0  0  0
  1  2  1
  2  3  1
  2  4  1
  2  5  1
  5  6  2
  5  7  1
  6  8  1
  6  9  1
  7 10  2
  8 11  1
  8 12  2
  9 13  1
 10 14  1
 11 15  2
 13 16  1
 14 17  1
 16 18  2
 16 19  1
 17 20  1
 17 21  1
 18 22  1
 19 23  2
 24 20  1
 21 25  1
 22 26  2
 22 27  1
 24 28  1
 24 29  1  6  0
 27 30  1
 27 31  1
 27 32  1
 29 33  1
 29 34  1
 29 35  1
 30 36  1
 32 37  1
 37 38  2
 37 39  1
 38 40  1
 39 41  1
 39 42  1
 10 12  1
 11 13  1
 23 26  1
 25 28  1
 31 36  1
 40 41  2
M  END
> <COMPOUND_NAMES>
Example 707 (S) (Page No: 784)

> <Reference>
WO2019148005

> <IC50_range_nM>
<100

> <smiles>
Cn1cnnc1CC1(COC1)c1cccc(c1)N1Cc2c(cc(CN3CCO[C@@H](C3)C(F)(F)F)cc2C(F)(F)F)C1=O

$$$$
C29H31F4N5O3
  MOLSOFT 03092310482D

 41 46  0  0  0  0  0  0  0  0999 V2000
    0.0000   -0.0000    0.0000 F   0  0  0
    1.1038    1.0098    0.0000 C   0  0  0
    2.1019   -0.0939    0.0000 F   0  0  0
    2.2076    2.0314    0.0000 F   0  0  0
    0.0822    2.1371    0.0000 C   0  0  0
   -1.3973    1.8318    0.0000 C   0  0  0
    0.5284    3.5697    0.0000 C   0  0  0
   -2.4189    2.9591    0.0000 C   0  0  0
   -2.1606    0.5402    0.0000 C   0  0  0
   -0.4932    4.6970    0.0000 C   0  0  0
   -3.8045    2.3602    0.0000 C   0  0  0
   -1.9727    4.3917    0.0000 C   0  0  0
   -3.6402    0.8689    0.0000 N   0  0  0
   -0.0470    6.1295    0.0000 C   0  0  0
   -5.1197    3.1235    0.0000 O   0  0  0
   -4.7674   -0.1292    0.0000 C   0  0  0
    1.4091    6.4583    0.0000 N   0  0  0
   -4.4621   -1.5852    0.0000 C   0  0  0
   -6.2000    0.3405    0.0000 C   0  0  0
    2.4072    5.3545    0.0000 C   0  0  0
    1.8553    7.8909    0.0000 C   0  0  0
   -5.5894   -2.5716    0.0000 C   0  0  0
   -7.3273   -0.6576    0.0000 C   0  0  0
    3.8633    5.6833    0.0000 C   0  0  3
    3.3114    8.2197    0.0000 C   0  0  0
   -7.0337   -2.1019    0.0000 C   0  0  0
   -5.2841   -4.0277    0.0000 C   0  0  0
    4.3095    7.1159    0.0000 O   0  0  0
    4.8614    4.5795    0.0000 C   0  0  0
   -4.0394   -4.8379    0.0000 C   0  0  0
   -6.1178   -5.2724    0.0000 C   0  0  0
   -6.7167   -3.5580    0.0000 C   0  0  0
    4.3917    3.1705    0.0000 C   0  0  0
   -4.8731   -6.0826    0.0000 O   0  0  0
   -7.8439   -4.5561    0.0000 C   0  0  0
    5.3898    2.0667    0.0000 F   0  0  0
   -9.3235   -4.2273    0.0000 N   0  0  0
   -7.7030   -6.0356    0.0000 N   0  0  0
  -10.0867   -5.5189    0.0000 N   0  0  0
   -9.0886   -6.6345    0.0000 C   0  0  0
   -6.4114   -6.7754    0.0000 C   0  0  0
  1  2  1
  2  3  1
  2  4  1
  2  5  1
  5  6  2
  5  7  1
  6  8  1
  6  9  1
  7 10  2
  8 11  1
  8 12  2
  9 13  1
 10 14  1
 11 15  2
 13 16  1
 14 17  1
 16 18  2
 16 19  1
 17 20  1
 17 21  1
 18 22  1
 19 23  2
 24 20  1
 21 25  1
 22 26  2
 22 27  1
 24 28  1
 24 29  1
 27 30  1
 27 31  1
 27 32  1
 29 33  1
 30 34  1
 32 35  1
 33 36  1
 35 37  2
 35 38  1
 37 39  1
 38 40  1
 38 41  1
 10 12  1
 11 13  1
 23 26  1
 25 28  1
 31 34  1
 39 40  2
M  END
> <COMPOUND_NAMES>
Example 521 (+/-) (Page No: 662)

> <Reference>
WO2019148005

> <IC50_range_nM>
<100

> <smiles>
Cn1cnnc1CC1(COC1)c1cccc(c1)N1Cc2c(cc(CN3CCOC(CCF)C3)cc2C(F)(F)F)C1=O

$$$$
C29H29F6N5O3
  MOLSOFT 03092310482D

 43 48  0  0  0  0  0  0  0  0999 V2000
    0.0000   -0.0000    0.0000 F   0  0  0
    1.1041    1.0101    0.0000 C   0  0  0
    2.1024   -0.0940    0.0000 F   0  0  0
    2.2081    2.0319    0.0000 F   0  0  0
    0.0822    2.1376    0.0000 C   0  0  0
   -1.3977    1.8323    0.0000 C   0  0  0
    0.5285    3.5705    0.0000 C   0  0  0
   -2.4195    2.9598    0.0000 C   0  0  0
   -2.1611    0.5403    0.0000 C   0  0  0
   -0.4933    4.6981    0.0000 C   0  0  0
   -3.8055    2.3608    0.0000 C   0  0  0
   -1.9732    4.3927    0.0000 C   0  0  0
   -3.6410    0.8691    0.0000 N   0  0  0
   -0.0470    6.1310    0.0000 C   0  0  0
   -5.1209    3.1242    0.0000 O   0  0  0
   -4.7686   -0.1292    0.0000 C   0  0  0
    1.4094    6.4599    0.0000 N   0  0  0
   -4.4632   -1.5856    0.0000 C   0  0  0
   -6.2015    0.3406    0.0000 C   0  0  0
    2.4078    5.3558    0.0000 C   0  0  0
    1.8557    7.8928    0.0000 C   0  0  0
   -5.5907   -2.5722    0.0000 C   0  0  0
   -7.3290   -0.6577    0.0000 C   0  0  0
    3.8642    5.6847    0.0000 C   0  0  3
    3.3122    8.2217    0.0000 C   0  0  0
   -7.0354   -2.1024    0.0000 C   0  0  0
   -5.2854   -4.0286    0.0000 C   0  0  0
    4.3105    7.1176    0.0000 O   0  0  0
    4.8625    4.5806    0.0000 C   0  0  0
   -4.0404   -4.8390    0.0000 C   0  0  0
   -6.1193   -5.2736    0.0000 C   0  0  0
   -6.7183   -3.5588    0.0000 C   0  0  0
    4.3927    3.1712    0.0000 C   0  0  0
   -4.8743   -6.0840    0.0000 O   0  0  0
   -7.8458   -4.5571    0.0000 C   0  0  0
    2.9598    3.6410    0.0000 F   0  0  0
    3.9229    1.7618    0.0000 F   0  0  0
    5.8021    2.7249    0.0000 F   0  0  0
   -9.3257   -4.2283    0.0000 N   0  0  0
   -7.7049   -6.0370    0.0000 N   0  0  0
  -10.0892   -5.5203    0.0000 N   0  0  0
   -9.0908   -6.6361    0.0000 C   0  0  0
   -6.4129   -6.7770    0.0000 C   0  0  0
  1  2  1
  2  3  1
  2  4  1
  2  5  1
  5  6  2
  5  7  1
  6  8  1
  6  9  1
  7 10  2
  8 11  1
  8 12  2
  9 13  1
 10 14  1
 11 15  2
 13 16  1
 14 17  1
 16 18  2
 16 19  1
 17 20  1
 17 21  1
 18 22  1
 19 23  2
 24 20  1
 21 25  1
 22 26  2
 22 27  1
 24 28  1
 24 29  1
 27 30  1
 27 31  1
 27 32  1
 29 33  1
 30 34  1
 32 35  1
 33 36  1
 33 37  1
 33 38  1
 35 39  2
 35 40  1
 39 41  1
 40 42  1
 40 43  1
 10 12  1
 11 13  1
 23 26  1
 25 28  1
 31 34  1
 41 42  2
M  END
> <COMPOUND_NAMES>
Example 715 (+/-) (Page No: 787)

> <Reference>
WO2019148005

> <IC50_range_nM>
<100

> <smiles>
Cn1cnnc1CC1(COC1)c1cccc(c1)N1Cc2c(cc(CN3CCOC(CC(F)(F)F)C3)cc2C(F)(F)F)C1=O

$$$$
C28H30F3N5O4
  MOLSOFT 03092310482D

 40 45  0  0  1  0  0  0  0  0999 V2000
    0.0000   -0.0000    0.0000 F   0  0  0
    1.1036    1.0097    0.0000 C   0  0  0
    2.1015   -0.0939    0.0000 F   0  0  0
    2.2072    2.0311    0.0000 F   0  0  0
    0.0822    2.1367    0.0000 C   0  0  0
   -1.3971    1.8315    0.0000 C   0  0  0
    0.5283    3.5691    0.0000 C   0  0  0
   -2.4185    2.9586    0.0000 C   0  0  0
   -2.1602    0.5401    0.0000 C   0  0  0
   -0.4931    4.6961    0.0000 C   0  0  0
   -3.8039    2.3598    0.0000 C   0  0  0
   -1.9724    4.3909    0.0000 C   0  0  0
   -3.6395    0.8688    0.0000 N   0  0  0
   -0.0470    6.1285    0.0000 C   0  0  0
   -5.1188    3.1229    0.0000 O   0  0  0
   -4.7666   -0.1291    0.0000 C   0  0  0
    1.4088    6.4572    0.0000 N   0  0  0
   -4.4613   -1.5849    0.0000 C   0  0  0
   -6.1989    0.3405    0.0000 C   0  0  0
    2.4068    5.3536    0.0000 C   0  0  0
    1.8550    7.8895    0.0000 C   0  0  0
   -5.5884   -2.5711    0.0000 C   0  0  0
   -7.3260   -0.6575    0.0000 C   0  0  0
    3.8626    5.6823    0.0000 C   0  0  2
    3.3108    8.2183    0.0000 C   0  0  0
   -7.0325   -2.1015    0.0000 C   0  0  0
   -5.2832   -4.0269    0.0000 C   0  0  0
    4.3087    7.1147    0.0000 O   0  0  0
    4.8605    4.5787    0.0000 C   0  0  0
   -4.0387   -4.8370    0.0000 C   0  0  0
   -6.1167   -5.2714    0.0000 C   0  0  0
   -6.7155   -3.5573    0.0000 C   0  0  0
    4.3909    3.1699    0.0000 O   0  0  0
   -4.8723   -6.0815    0.0000 O   0  0  0
   -7.8426   -4.5553    0.0000 C   0  0  0
   -9.3219   -4.2265    0.0000 N   0  0  0
   -7.7017   -6.0345    0.0000 N   0  0  0
  -10.0850   -5.5180    0.0000 N   0  0  0
   -9.0870   -6.6333    0.0000 C   0  0  0
   -6.4102   -6.7742    0.0000 C   0  0  0
  1  2  1
  2  3  1
  2  4  1
  2  5  1
  5  6  2
  5  7  1
  6  8  1
  6  9  1
  7 10  2
  8 11  1
  8 12  2
  9 13  1
 10 14  1
 11 15  2
 13 16  1
 14 17  1
 16 18  2
 16 19  1
 17 20  1
 17 21  1
 18 22  1
 19 23  2
 24 20  1
 21 25  1
 22 26  2
 22 27  1
 24 28  1
 24 29  1  6  0
 27 30  1
 27 31  1
 27 32  1
 29 33  1
 30 34  1
 32 35  1
 35 36  2
 35 37  1
 36 38  1
 37 39  1
 37 40  1
 10 12  1
 11 13  1
 23 26  1
 25 28  1
 31 34  1
 38 39  2
M  END
> <COMPOUND_NAMES>
Example 710 (S) (Page No: 785)

> <Reference>
WO2019148005

> <IC50_range_nM>
<100

> <smiles>
Cn1cnnc1CC1(COC1)c1cccc(c1)N1Cc2c(cc(CN3CCO[C@@H](C3)CO)cc2C(F)(F)F)C1=O

$$$$
C29H32F3N5O4
  MOLSOFT 03092310482D

 41 46  0  0  1  0  0  0  0  0999 V2000
    0.0000   -0.0000    0.0000 F   0  0  0
    1.4886    0.0118    0.0000 C   0  0  0
    1.4768   -1.4768    0.0000 F   0  0  0
    2.9773    0.0236    0.0000 F   0  0  0
    1.4768    1.5241    0.0000 C   0  0  0
    2.7646    2.2802    0.0000 C   0  0  0
    0.1654    2.2802    0.0000 C   0  0  0
    2.7528    3.7925    0.0000 C   0  0  0
    4.1823    1.8313    0.0000 C   0  0  0
    0.1536    3.7925    0.0000 C   0  0  0
    4.1705    4.2650    0.0000 C   0  0  0
    1.4414    4.5486    0.0000 C   0  0  0
    5.0566    3.0600    0.0000 N   0  0  0
   -1.1578    4.5486    0.0000 C   0  0  0
    4.6195    5.7064    0.0000 O   0  0  0
    6.5452    3.0718    0.0000 C   0  0  0
   -2.4692    3.8043    0.0000 N   0  0  0
    7.2777    4.3832    0.0000 C   0  0  0
    7.2777    1.7840    0.0000 C   0  0  0
   -3.7806    4.5604    0.0000 C   0  0  0
   -2.4811    2.3156    0.0000 C   0  0  0
    8.7664    4.3950    0.0000 C   0  0  0
    8.7664    1.7958    0.0000 C   0  0  0
   -5.0921    3.8161    0.0000 C   0  0  2
   -3.7925    1.5831    0.0000 C   0  0  0
    9.4989    3.1072    0.0000 C   0  0  0
    9.4989    5.7064    0.0000 C   0  0  0
   -5.1039    2.3275    0.0000 O   0  0  0
   -6.4035    4.5722    0.0000 C   0  0  0
    9.0972    7.1714    0.0000 C   0  0  0
   10.9403    6.1081    0.0000 C   0  0  0
   10.2314    4.4186    0.0000 C   0  0  0
   -7.7149    3.8279    0.0000 O   0  0  0
   10.5386    7.5731    0.0000 O   0  0  0
   11.7200    4.4304    0.0000 C   0  0  0
   -9.0263    4.5840    0.0000 C   0  0  0
   12.5943    5.6592    0.0000 N   0  0  0
   12.5943    3.2254    0.0000 N   0  0  0
   14.0120    5.2102    0.0000 N   0  0  0
   14.0120    3.6979    0.0000 C   0  0  0
   12.1217    1.8076    0.0000 C   0  0  0
  1  2  1
  2  3  1
  2  4  1
  2  5  1
  5  6  2
  5  7  1
  6  8  1
  6  9  1
  7 10  2
  8 11  1
  8 12  2
  9 13  1
 10 14  1
 11 15  2
 13 16  1
 14 17  1
 16 18  2
 16 19  1
 17 20  1
 17 21  1
 18 22  1
 19 23  2
 24 20  1
 21 25  1
 22 26  2
 22 27  1
 24 28  1
 24 29  1  6  0
 27 30  1
 27 31  1
 27 32  1
 29 33  1
 30 34  1
 32 35  1
 33 36  1
 35 37  2
 35 38  1
 37 39  1
 38 40  1
 38 41  1
 10 12  1
 11 13  1
 23 26  1
 25 28  1
 31 34  1
 39 40  2
M  END
> <COMPOUND_NAMES>
Example 667 (S) (Page No: 750)

> <Reference>
WO2019148005

> <IC50_range_nM>
<100

> <smiles>
Cn1cnnc1CC1(COC1)c1cccc(c1)N1Cc2c(cc(CN3CCO[C@@H](C3)COC)cc2C(F)(F)F)C1=O

$$$$
C27H28F3N5O4S
  MOLSOFT 03092310482D

 40 45  0  0  0  0  0  0  0  0999 V2000
    0.0000   -0.0000    0.0000 S   0  0  0
    1.4121   -0.4472    0.0000 O   0  0  0
    1.1062    1.0120    0.0000 O   0  0  0
   -1.0120    1.1297    0.0000 C   0  0  0
   -0.4707   -1.4121    0.0000 C   0  0  0
   -2.4947    0.8237    0.0000 C   0  0  0
   -1.9534   -1.7181    0.0000 C   0  0  0
   -2.9654   -0.5884    0.0000 N   0  0  0
   -4.4481   -0.8943    0.0000 C   0  0  0
   -4.9188   -2.3064    0.0000 C   0  0  0
   -3.9304   -3.4126    0.0000 C   0  0  0
   -6.4016   -2.6124    0.0000 C   0  0  0
   -4.4011   -4.8247    0.0000 C   0  0  0
   -6.8723   -4.0245    0.0000 C   0  0  0
   -5.8838   -5.1307    0.0000 C   0  0  0
   -3.4126   -5.9309    0.0000 C   0  0  0
   -8.2608   -4.6247    0.0000 C   0  0  0
   -6.6487   -6.4251    0.0000 C   0  0  0
   -4.5423   -6.9193    0.0000 F   0  0  0
   -2.4241   -7.0370    0.0000 F   0  0  0
   -2.3064   -4.9188    0.0000 F   0  0  0
   -9.5788   -3.8598    0.0000 O   0  0  0
   -8.1196   -6.1074    0.0000 N   0  0  0
   -9.2493   -7.0959    0.0000 C   0  0  0
   -8.9434   -8.5550    0.0000 C   0  0  0
  -10.6850   -6.6251    0.0000 C   0  0  0
  -10.0730   -9.5435    0.0000 C   0  0  0
  -11.8147   -7.6136    0.0000 C   0  0  0
  -11.5087   -9.0728    0.0000 C   0  0  0
   -9.7671  -11.0027    0.0000 C   0  0  0
   -8.5197  -11.8147    0.0000 C   0  0  0
  -10.6026  -12.2501    0.0000 C   0  0  0
  -11.2027  -10.5320    0.0000 C   0  0  0
   -9.3552  -13.0620    0.0000 O   0  0  0
  -12.3324  -11.5205    0.0000 C   0  0  0
  -13.8151  -11.1910    0.0000 N   0  0  0
  -12.1912  -13.0032    0.0000 N   0  0  0
  -14.5800  -12.4854    0.0000 N   0  0  0
  -13.5798  -13.6033    0.0000 C   0  0  0
  -10.8968  -13.7445    0.0000 C   0  0  0
  1  2  2
  1  3  2
  1  4  1
  1  5  1
  4  6  1
  5  7  1
  6  8  1
  8  9  1
  9 10  1
 10 11  2
 10 12  1
 11 13  1
 12 14  2
 13 15  2
 13 16  1
 14 17  1
 15 18  1
 16 19  1
 16 20  1
 16 21  1
 17 22  2
 17 23  1
 23 24  1
 24 25  2
 24 26  1
 25 27  1
 26 28  2
 27 29  2
 27 30  1
 30 31  1
 30 32  1
 30 33  1
 31 34  1
 33 35  1
 35 36  2
 35 37  1
 36 38  1
 37 39  1
 37 40  1
  7  8  1
 14 15  1
 18 23  1
 28 29  1
 32 34  1
 38 39  2
M  END
> <COMPOUND_NAMES>
Example 434 (Page No: 589)

> <Reference>
WO2019148005

> <IC50_range_nM>
<100

> <smiles>
Cn1cnnc1CC1(COC1)c1cccc(c1)N1Cc2c(cc(CN3CCS(CC3)(=O)=O)cc2C(F)(F)F)C1=O

$$$$
C28H30F3N5O4S
  MOLSOFT 03092310482D

 41 46  0  0  0  0  0  0  0  0999 V2000
    0.0000   -0.0000    0.0000 S   0  0  0
    1.2823    0.7529    0.0000 O   0  0  0
   -0.7529    1.3058    0.0000 O   0  0  0
   -1.3058   -0.7294    0.0000 C   0  0  0
    0.7294   -1.2823    0.0000 C   0  0  0
   -2.7645   -0.3294    0.0000 C   0  0  0
   -1.7058   -2.1646    0.0000 C   0  0  0
   -3.1645   -1.7646    0.0000 N   0  0  0
   -4.4703   -2.4940    0.0000 C   0  0  3
   -5.7761   -1.7411    0.0000 C   0  0  0
   -4.4821   -3.9762    0.0000 C   0  0  0
   -5.7879   -0.2353    0.0000 C   0  0  0
   -7.0819   -2.4704    0.0000 C   0  0  0
   -7.0937    0.5176    0.0000 C   0  0  0
   -8.3877   -1.7175    0.0000 C   0  0  0
   -8.3995   -0.2118    0.0000 C   0  0  0
   -7.1054    2.0234    0.0000 C   0  0  0
   -9.8229   -2.1646    0.0000 C   0  0  0
   -9.8347    0.2588    0.0000 C   0  0  0
   -7.1172    3.5292    0.0000 F   0  0  0
   -5.6232    2.0352    0.0000 F   0  0  0
   -8.6112    2.0352    0.0000 F   0  0  0
  -10.2934   -3.5762    0.0000 O   0  0  0
  -10.7169   -0.9411    0.0000 N   0  0  0
  -12.2227   -0.9294    0.0000 C   0  0  0
  -12.9756   -2.2116    0.0000 C   0  0  0
  -12.9756    0.3764    0.0000 C   0  0  0
  -14.4814   -2.1999    0.0000 C   0  0  0
  -14.4814    0.3882    0.0000 C   0  0  0
  -15.2343   -0.8941    0.0000 C   0  0  0
  -15.2343   -3.4821    0.0000 C   0  0  0
  -14.8579   -4.9173    0.0000 C   0  0  0
  -16.6930   -3.8586    0.0000 C   0  0  0
  -15.9872   -2.1763    0.0000 C   0  0  0
  -16.3166   -5.2938    0.0000 O   0  0  0
  -17.4930   -2.1646    0.0000 C   0  0  0
  -18.3870   -3.3645    0.0000 N   0  0  0
  -18.3870   -0.9411    0.0000 N   0  0  0
  -19.8222   -2.8939    0.0000 N   0  0  0
  -19.8222   -1.3881    0.0000 C   0  0  0
  -17.9400    0.4941    0.0000 C   0  0  0
  1  2  2
  1  3  2
  1  4  1
  1  5  1
  4  6  1
  4  7  1
  6  8  1
  9  8  1
  9 10  1
  9 11  1
 10 12  2
 10 13  1
 12 14  1
 13 15  2
 14 16  2
 14 17  1
 15 18  1
 16 19  1
 17 20  1
 17 21  1
 17 22  1
 18 23  2
 18 24  1
 24 25  1
 25 26  2
 25 27  1
 26 28  1
 27 29  2
 28 30  2
 28 31  1
 31 32  1
 31 33  1
 31 34  1
 32 35  1
 34 36  1
 36 37  2
 36 38  1
 37 39  1
 38 40  1
 38 41  1
  7  8  1
 15 16  1
 19 24  1
 29 30  1
 33 35  1
 39 40  2
M  END
> <COMPOUND_NAMES>
Example 430 (+/-) (Page No: 587)

> <Reference>
WO2019148005

> <IC50_range_nM>
<100

> <smiles>
CC(c1cc2C(N(Cc2c(c1)C(F)(F)F)c1cccc(c1)C1(Cc2nncn2C)COC1)=O)N1CC(C1)S(C)(=O)=O

$$$$
C27H26F3N5O4
  MOLSOFT 03092310482D

 39 44  0  0  0  0  0  0  0  0999 V2000
    0.0000   -0.0000    0.0000 F   0  0  0
    1.1030    1.0091    0.0000 C   0  0  0
    2.1004   -0.0939    0.0000 F   0  0  0
    2.2060    2.0299    0.0000 F   0  0  0
    0.0821    2.1356    0.0000 C   0  0  0
   -1.3963    1.8305    0.0000 C   0  0  0
    0.5280    3.5671    0.0000 C   0  0  0
   -2.4172    2.9569    0.0000 C   0  0  0
   -2.1590    0.5398    0.0000 C   0  0  0
   -0.4928    4.6935    0.0000 C   0  0  0
   -3.8018    2.3585    0.0000 C   0  0  0
   -1.9713    4.3884    0.0000 C   0  0  0
   -3.6375    0.8683    0.0000 N   0  0  0
   -0.0469    6.1250    0.0000 C   0  0  0
   -5.1159    3.1212    0.0000 O   0  0  0
   -4.7639   -0.1291    0.0000 C   0  0  0
    1.4081    6.4536    0.0000 N   0  0  0
   -4.4588   -1.5841    0.0000 C   0  0  0
   -6.1955    0.3403    0.0000 C   0  0  0
    2.2177    7.7208    0.0000 C   0  0  0
    2.6518    5.6440    0.0000 C   0  0  0
   -5.5853   -2.5697    0.0000 C   0  0  0
   -7.3219   -0.6571    0.0000 C   0  0  0
    3.4615    6.9112    0.0000 C   0  0  0
   -7.0286   -2.1004    0.0000 C   0  0  0
   -5.2802   -4.0247    0.0000 C   0  0  0
    4.9165    7.2398    0.0000 C   0  0  0
   -4.0364   -4.8343    0.0000 C   0  0  0
   -6.1133   -5.2685    0.0000 C   0  0  0
   -6.7117   -3.5553    0.0000 C   0  0  0
    5.3624    8.6830    0.0000 O   0  0  0
    5.9138    6.1368    0.0000 O   0  0  0
   -4.8695   -6.0781    0.0000 O   0  0  0
   -7.8382   -4.5527    0.0000 C   0  0  0
   -9.3166   -4.2242    0.0000 N   0  0  0
   -7.6974   -6.0312    0.0000 N   0  0  0
  -10.0793   -5.5149    0.0000 N   0  0  0
   -9.0820   -6.6296    0.0000 C   0  0  0
   -6.4067   -6.7704    0.0000 C   0  0  0
  1  2  1
  2  3  1
  2  4  1
  2  5  1
  5  6  2
  5  7  1
  6  8  1
  6  9  1
  7 10  2
  8 11  1
  8 12  2
  9 13  1
 10 14  1
 11 15  2
 13 16  1
 14 17  1
 16 18  2
 16 19  1
 17 20  1
 17 21  1
 18 22  1
 19 23  2
 20 24  1
 22 25  2
 22 26  1
 24 27  1
 26 28  1
 26 29  1
 26 30  1
 27 31  2
 27 32  1
 28 33  1
 30 34  1
 34 35  2
 34 36  1
 35 37  1
 36 38  1
 36 39  1
 10 12  1
 11 13  1
 21 24  1
 23 25  1
 29 33  1
 37 38  2
M  END
> <COMPOUND_NAMES>
Example 428 (Page No: 587)

> <Reference>
WO2019148005

> <IC50_range_nM>
<100

> <smiles>
Cn1cnnc1CC1(COC1)c1cccc(c1)N1Cc2c(cc(CN3CC(C3)C(O)=O)cc2C(F)(F)F)C1=O

$$$$
C28H28F3N5O3
  MOLSOFT 03092310482D

 39 44  0  0  0  0  0  0  0  0999 V2000
    0.0000   -0.0000    0.0000 F   0  0  0
    1.1034    1.0095    0.0000 C   0  0  0
    2.1011   -0.0939    0.0000 F   0  0  0
    2.2068    2.0307    0.0000 F   0  0  0
    0.0822    2.1364    0.0000 C   0  0  0
   -1.3968    1.8312    0.0000 C   0  0  0
    0.5282    3.5684    0.0000 C   0  0  0
   -2.4181    2.9580    0.0000 C   0  0  0
   -2.1598    0.5400    0.0000 C   0  0  0
   -0.4930    4.6953    0.0000 C   0  0  0
   -3.8032    2.3594    0.0000 C   0  0  0
   -1.9720    4.3901    0.0000 C   0  0  0
   -3.6388    0.8686    0.0000 N   0  0  0
   -0.0470    6.1273    0.0000 C   0  0  0
   -5.1179    3.1224    0.0000 O   0  0  0
   -4.7657   -0.1291    0.0000 C   0  0  0
    1.4086    6.4560    0.0000 C   0  0  3
   -4.4605   -1.5847    0.0000 C   0  0  0
   -6.1978    0.3404    0.0000 C   0  0  0
    2.4063    5.3526    0.0000 C   0  0  0
    1.8546    7.8881    0.0000 C   0  0  0
   -5.5874   -2.5707    0.0000 C   0  0  0
   -7.3246   -0.6573    0.0000 C   0  0  0
    1.9368    3.9440    0.0000 O   0  0  0
    3.8619    5.6813    0.0000 C   0  0  0
    3.3102    8.2167    0.0000 N   0  0  0
   -7.0312   -2.1011    0.0000 C   0  0  0
   -5.2822   -4.0262    0.0000 C   0  0  0
    4.3079    7.1134    0.0000 C   0  0  0
   -4.0379   -4.8361    0.0000 C   0  0  0
   -6.1156   -5.2705    0.0000 C   0  0  0
   -6.7143   -3.5567    0.0000 C   0  0  0
   -4.8714   -6.0804    0.0000 O   0  0  0
   -7.8411   -4.5544    0.0000 C   0  0  0
   -9.3201   -4.2258    0.0000 N   0  0  0
   -7.7003   -6.0334    0.0000 N   0  0  0
  -10.0831   -5.5170    0.0000 N   0  0  0
   -9.0854   -6.6321    0.0000 C   0  0  0
   -6.4091   -6.7729    0.0000 C   0  0  0
  1  2  1
  2  3  1
  2  4  1
  2  5  1
  5  6  2
  5  7  1
  6  8  1
  6  9  1
  7 10  2
  8 11  1
  8 12  2
  9 13  1
 10 14  1
 11 15  2
 13 16  1
 17 14  1
 16 18  2
 16 19  1
 17 20  1
 17 21  1
 18 22  1
 19 23  2
 20 24  2
 20 25  1
 21 26  1
 22 27  2
 22 28  1
 25 29  1
 28 30  1
 28 31  1
 28 32  1
 30 33  1
 32 34  1
 34 35  2
 34 36  1
 35 37  1
 36 38  1
 36 39  1
 10 12  1
 11 13  1
 23 27  1
 26 29  1
 31 33  1
 37 38  2
M  END
> <COMPOUND_NAMES>
Example 530 (+/-) (Page No: 668)

> <Reference>
WO2019148005

> <IC50_range_nM>
<100

> <smiles>
Cn1cnnc1CC1(COC1)c1cccc(c1)N1Cc2c(cc(CC3CNCCC3=O)cc2C(F)(F)F)C1=O

$$$$
C29H30F3N5O3
  MOLSOFT 03092310482D

 40 45  0  0  0  0  0  0  0  0999 V2000
    0.0000   -0.0000    0.0000 F   0  0  0
    1.1034    1.0095    0.0000 C   0  0  0
    2.1011   -0.0939    0.0000 F   0  0  0
    2.2068    2.0307    0.0000 F   0  0  0
    0.0822    2.1364    0.0000 C   0  0  0
   -1.3968    1.8312    0.0000 C   0  0  0
    0.5282    3.5684    0.0000 C   0  0  0
   -2.4181    2.9580    0.0000 C   0  0  0
   -2.1598    0.5400    0.0000 C   0  0  0
   -0.4930    4.6953    0.0000 C   0  0  0
   -3.8032    2.3594    0.0000 C   0  0  0
   -1.9720    4.3901    0.0000 C   0  0  0
   -3.6388    0.8686    0.0000 N   0  0  0
   -0.0470    6.1274    0.0000 C   0  0  0
   -5.1179    3.1224    0.0000 O   0  0  0
   -4.7657   -0.1291    0.0000 C   0  0  0
    1.4086    6.4560    0.0000 C   0  0  3
   -4.4605   -1.5847    0.0000 C   0  0  0
   -6.1978    0.3404    0.0000 C   0  0  0
    2.4063    5.3526    0.0000 C   0  0  0
    1.8546    7.8881    0.0000 C   0  0  0
   -5.5874   -2.5707    0.0000 C   0  0  0
   -7.3247   -0.6573    0.0000 C   0  0  0
    1.9368    3.9440    0.0000 O   0  0  0
    3.8619    5.6813    0.0000 C   0  0  0
    3.3102    8.2168    0.0000 N   0  0  0
   -7.0312   -2.1011    0.0000 C   0  0  0
   -5.2822   -4.0262    0.0000 C   0  0  0
    4.3079    7.1134    0.0000 C   0  0  0
    3.7562    9.6488    0.0000 C   0  0  0
   -4.0379   -4.8361    0.0000 C   0  0  0
   -6.1156   -5.2705    0.0000 C   0  0  0
   -6.7143   -3.5567    0.0000 C   0  0  0
   -4.8714   -6.0804    0.0000 O   0  0  0
   -7.8411   -4.5544    0.0000 C   0  0  0
   -9.3201   -4.2258    0.0000 N   0  0  0
   -7.7003   -6.0334    0.0000 N   0  0  0
  -10.0831   -5.5170    0.0000 N   0  0  0
   -9.0854   -6.6321    0.0000 C   0  0  0
   -6.4091   -6.7730    0.0000 C   0  0  0
  1  2  1
  2  3  1
  2  4  1
  2  5  1
  5  6  2
  5  7  1
  6  8  1
  6  9  1
  7 10  2
  8 11  1
  8 12  2
  9 13  1
 10 14  1
 11 15  2
 13 16  1
 17 14  1
 16 18  2
 16 19  1
 17 20  1
 17 21  1
 18 22  1
 19 23  2
 20 24  2
 20 25  1
 21 26  1
 22 27  2
 22 28  1
 25 29  1
 26 30  1
 28 31  1
 28 32  1
 28 33  1
 31 34  1
 33 35  1
 35 36  2
 35 37  1
 36 38  1
 37 39  1
 37 40  1
 10 12  1
 11 13  1
 23 27  1
 26 29  1
 32 34  1
 38 39  2
M  END
> <COMPOUND_NAMES>
Example 531 (+/-) (Page No: 669)

> <Reference>
WO2019148005

> <IC50_range_nM>
<100

> <smiles>
CN1CCC(C(Cc2cc3C(N(Cc3c(c2)C(F)(F)F)c2cccc(c2)C2(Cc3nncn3C)COC2)=O)C1)=O

$$$$
C29H32F3N5O3
  MOLSOFT 03092310482D

 40 45  0  0  1  0  0  0  0  0999 V2000
    0.0000   -0.0000    0.0000 F   0  0  0
    1.1034    1.0095    0.0000 C   0  0  0
    2.1011   -0.0939    0.0000 F   0  0  0
    2.2068    2.0307    0.0000 F   0  0  0
    0.0822    2.1364    0.0000 C   0  0  0
   -1.3968    1.8312    0.0000 C   0  0  0
    0.5282    3.5684    0.0000 C   0  0  0
   -2.4181    2.9580    0.0000 C   0  0  0
   -2.1598    0.5400    0.0000 C   0  0  0
   -0.4930    4.6953    0.0000 C   0  0  0
   -3.8032    2.3594    0.0000 C   0  0  0
   -1.9720    4.3901    0.0000 C   0  0  0
   -3.6388    0.8686    0.0000 N   0  0  0
   -0.0470    6.1274    0.0000 C   0  0  0
   -5.1179    3.1224    0.0000 O   0  0  0
   -4.7657   -0.1291    0.0000 C   0  0  0
    1.4086    6.4560    0.0000 C   0  0  1
   -4.4605   -1.5847    0.0000 C   0  0  0
   -6.1978    0.3404    0.0000 C   0  0  0
    2.4063    5.3526    0.0000 C   0  0  1
    1.8546    7.8881    0.0000 C   0  0  0
   -5.5874   -2.5707    0.0000 C   0  0  0
   -7.3247   -0.6573    0.0000 C   0  0  0
    1.9368    3.9440    0.0000 O   0  0  0
    3.8619    5.6813    0.0000 C   0  0  0
    3.3102    8.2168    0.0000 N   0  0  0
   -7.0312   -2.1011    0.0000 C   0  0  0
   -5.2822   -4.0262    0.0000 C   0  0  0
    4.3079    7.1134    0.0000 C   0  0  0
    3.7562    9.6488    0.0000 C   0  0  0
   -4.0379   -4.8361    0.0000 C   0  0  0
   -6.1156   -5.2705    0.0000 C   0  0  0
   -6.7143   -3.5567    0.0000 C   0  0  0
   -4.8714   -6.0804    0.0000 O   0  0  0
   -7.8411   -4.5544    0.0000 C   0  0  0
   -9.3201   -4.2258    0.0000 N   0  0  0
   -7.7003   -6.0334    0.0000 N   0  0  0
  -10.0831   -5.5170    0.0000 N   0  0  0
   -9.0854   -6.6321    0.0000 C   0  0  0
   -6.4091   -6.7730    0.0000 C   0  0  0
  1  2  1
  2  3  1
  2  4  1
  2  5  1
  5  6  2
  5  7  1
  6  8  1
  6  9  1
  7 10  2
  8 11  1
  8 12  2
  9 13  1
 10 14  1
 11 15  2
 13 16  1
 17 14  1  6  0
 16 18  2
 16 19  1
 17 20  1
 17 21  1
 18 22  1
 19 23  2
 20 24  1  6  0
 20 25  1
 21 26  1
 22 27  2
 22 28  1
 25 29  1
 26 30  1
 28 31  1
 28 32  1
 28 33  1
 31 34  1
 33 35  1
 35 36  2
 35 37  1
 36 38  1
 37 39  1
 37 40  1
 10 12  1
 11 13  1
 23 27  1
 26 29  1
 32 34  1
 38 39  2
M  END
> <COMPOUND_NAMES>
Example 532 (cis) (Page No: 670)

> <Reference>
WO2019148005

> <IC50_range_nM>
<100

> <smiles>
CN1CC[C@@H]([C@H](Cc2cc3C(N(Cc3c(c2)C(F)(F)F)c2cccc(c2)C2(Cc3nncn3C)COC2)=O)C1)O

$$$$
C29H32F3N5O3
  MOLSOFT 03092310482D

 40 45  0  0  1  0  0  0  0  0999 V2000
    0.0000   -0.0000    0.0000 F   0  0  0
    1.1034    1.0095    0.0000 C   0  0  0
    2.1011   -0.0939    0.0000 F   0  0  0
    2.2068    2.0307    0.0000 F   0  0  0
    0.0822    2.1364    0.0000 C   0  0  0
   -1.3968    1.8312    0.0000 C   0  0  0
    0.5282    3.5684    0.0000 C   0  0  0
   -2.4181    2.9580    0.0000 C   0  0  0
   -2.1598    0.5400    0.0000 C   0  0  0
   -0.4930    4.6953    0.0000 C   0  0  0
   -3.8032    2.3594    0.0000 C   0  0  0
   -1.9720    4.3901    0.0000 C   0  0  0
   -3.6388    0.8686    0.0000 N   0  0  0
   -0.0470    6.1274    0.0000 C   0  0  0
   -5.1179    3.1224    0.0000 O   0  0  0
   -4.7657   -0.1291    0.0000 C   0  0  0
    1.4086    6.4560    0.0000 C   0  0  2
   -4.4605   -1.5847    0.0000 C   0  0  0
   -6.1978    0.3404    0.0000 C   0  0  0
    2.4063    5.3526    0.0000 C   0  0  1
    1.8546    7.8881    0.0000 C   0  0  0
   -5.5874   -2.5707    0.0000 C   0  0  0
   -7.3247   -0.6573    0.0000 C   0  0  0
    1.9368    3.9440    0.0000 O   0  0  0
    3.8619    5.6813    0.0000 C   0  0  0
    3.3102    8.2168    0.0000 N   0  0  0
   -7.0312   -2.1011    0.0000 C   0  0  0
   -5.2822   -4.0262    0.0000 C   0  0  0
    4.3079    7.1134    0.0000 C   0  0  0
    3.7562    9.6488    0.0000 C   0  0  0
   -4.0379   -4.8361    0.0000 C   0  0  0
   -6.1156   -5.2705    0.0000 C   0  0  0
   -6.7143   -3.5567    0.0000 C   0  0  0
   -4.8714   -6.0804    0.0000 O   0  0  0
   -7.8411   -4.5544    0.0000 C   0  0  0
   -9.3201   -4.2258    0.0000 N   0  0  0
   -7.7003   -6.0334    0.0000 N   0  0  0
  -10.0831   -5.5170    0.0000 N   0  0  0
   -9.0854   -6.6321    0.0000 C   0  0  0
   -6.4091   -6.7730    0.0000 C   0  0  0
  1  2  1
  2  3  1
  2  4  1
  2  5  1
  5  6  2
  5  7  1
  6  8  1
  6  9  1
  7 10  2
  8 11  1
  8 12  2
  9 13  1
 10 14  1
 11 15  2
 13 16  1
 17 14  1  1  0
 16 18  2
 16 19  1
 17 20  1
 17 21  1
 18 22  1
 19 23  2
 20 24  1  6  0
 20 25  1
 21 26  1
 22 27  2
 22 28  1
 25 29  1
 26 30  1
 28 31  1
 28 32  1
 28 33  1
 31 34  1
 33 35  1
 35 36  2
 35 37  1
 36 38  1
 37 39  1
 37 40  1
 10 12  1
 11 13  1
 23 27  1
 26 29  1
 32 34  1
 38 39  2
M  END
> <COMPOUND_NAMES>
Example 533 (Stereo) (Page No: 670)

> <Reference>
WO2019148005

> <IC50_range_nM>
<100

> <smiles>
CN1CC[C@@H]([C@@H](Cc2cc3C(N(Cc3c(c2)C(F)(F)F)c2cccc(c2)C2(Cc3nncn3C)COC2)=O)C1)O

$$$$
C27H27F4N5O2
  MOLSOFT 03092310482D

 38 43  0  0  1  0  0  0  0  0999 V2000
    0.0000   -0.0000    0.0000 F   0  0  0
    1.0786    1.0101    0.0000 C   0  0  0
    2.0544   -0.0685    0.0000 F   0  0  0
    2.1571    2.0202    0.0000 F   0  0  0
    0.0685    2.1229    0.0000 C   0  0  0
   -1.4038    1.8318    0.0000 C   0  0  0
    0.5136    3.5438    0.0000 C   0  0  0
   -2.4139    2.9446    0.0000 C   0  0  0
   -2.1571    0.5650    0.0000 C   0  0  0
   -0.4965    4.6566    0.0000 C   0  0  0
   -3.7835    2.3625    0.0000 C   0  0  0
   -1.9688    4.3656    0.0000 C   0  0  0
   -3.6294    0.8902    0.0000 N   0  0  0
   -0.0514    6.0776    0.0000 C   0  0  0
   -5.0846    3.1158    0.0000 O   0  0  0
   -4.7422   -0.0856    0.0000 C   0  0  0
    1.3867    6.4029    0.0000 N   0  0  0
   -4.4512   -1.5237    0.0000 C   0  0  0
   -6.1632    0.3938    0.0000 C   0  0  0
    1.9688    7.7724    0.0000 C   0  0  0
    2.4653    5.4270    0.0000 C   0  0  0
   -5.5640   -2.4995    0.0000 C   0  0  0
   -7.2760   -0.5821    0.0000 C   0  0  0
    3.4240    7.6355    0.0000 C   0  0  0
    3.7321    6.1803    0.0000 C   0  0  0
   -6.9849   -2.0202    0.0000 C   0  0  0
   -5.1189   -4.6566    0.0000 C   0  0  0
   -6.5398   -4.1773    0.0000 C   0  0  2
   -3.8862   -5.4441    0.0000 C   0  0  0
   -5.9406   -5.8893    0.0000 C   0  0  0
   -6.8651   -2.7049    0.0000 F   0  0  0
   -7.6526   -5.1531    0.0000 C   0  0  0
   -4.7080   -6.6768    0.0000 O   0  0  0
   -9.1249   -4.8278    0.0000 N   0  0  0
   -7.5156   -6.6083    0.0000 N   0  0  0
   -9.8782   -6.0947    0.0000 N   0  0  0
   -8.8852   -7.1904    0.0000 C   0  0  0
   -6.2488   -7.3273    0.0000 C   0  0  0
  1  2  1
  2  3  1
  2  4  1
  2  5  1
  5  6  2
  5  7  1
  6  8  1
  6  9  1
  7 10  2
  8 11  1
  8 12  2
  9 13  1
 10 14  1
 11 15  2
 13 16  1
 14 17  1
 16 18  2
 16 19  1
 17 20  1
 17 21  1
 18 22  1
 19 23  2
 20 24  1
 21 25  1
 22 26  2
 22 27  1
 28 27  1
 27 29  1
 27 30  1
 28 31  1  1  0
 28 32  1
 29 33  1
 32 34  2
 32 35  1
 34 36  1
 35 37  1
 35 38  1
 10 12  1
 11 13  1
 23 26  1
 24 25  1
 30 33  1
 36 37  2
M  END
> <COMPOUND_NAMES>
Example 673a (S) (Page No: 756)

> <Reference>
WO2019148005

> <IC50_range_nM>
<100

> <smiles>
Cn1cnnc1[C@H](C1(COC1)c1cccc(c1)N1Cc2c(cc(CN3CCCC3)cc2C(F)(F)F)C1=O)F

$$$$
C27H27F4N5O2
  MOLSOFT 03092310482D

 38 43  0  0  1  0  0  0  0  0999 V2000
    0.0000   -0.0000    0.0000 F   0  0  0
    1.0786    1.0101    0.0000 C   0  0  0
    2.0544   -0.0685    0.0000 F   0  0  0
    2.1571    2.0202    0.0000 F   0  0  0
    0.0685    2.1229    0.0000 C   0  0  0
   -1.4038    1.8318    0.0000 C   0  0  0
    0.5136    3.5438    0.0000 C   0  0  0
   -2.4139    2.9446    0.0000 C   0  0  0
   -2.1571    0.5650    0.0000 C   0  0  0
   -0.4965    4.6566    0.0000 C   0  0  0
   -3.7835    2.3625    0.0000 C   0  0  0
   -1.9688    4.3656    0.0000 C   0  0  0
   -3.6294    0.8902    0.0000 N   0  0  0
   -0.0514    6.0776    0.0000 C   0  0  0
   -5.0846    3.1158    0.0000 O   0  0  0
   -4.7422   -0.0856    0.0000 C   0  0  0
    1.3867    6.4029    0.0000 N   0  0  0
   -4.4512   -1.5237    0.0000 C   0  0  0
   -6.1632    0.3938    0.0000 C   0  0  0
    1.9688    7.7724    0.0000 C   0  0  0
    2.4653    5.4270    0.0000 C   0  0  0
   -5.5640   -2.4995    0.0000 C   0  0  0
   -7.2760   -0.5821    0.0000 C   0  0  0
    3.4240    7.6355    0.0000 C   0  0  0
    3.7321    6.1803    0.0000 C   0  0  0
   -6.9849   -2.0202    0.0000 C   0  0  0
   -5.1189   -4.6566    0.0000 C   0  0  0
   -6.5398   -4.1773    0.0000 C   0  0  1
   -3.8862   -5.4441    0.0000 C   0  0  0
   -5.9406   -5.8893    0.0000 C   0  0  0
   -6.8651   -2.7049    0.0000 F   0  0  0
   -7.6526   -5.1531    0.0000 C   0  0  0
   -4.7080   -6.6768    0.0000 O   0  0  0
   -9.1249   -4.8278    0.0000 N   0  0  0
   -7.5156   -6.6083    0.0000 N   0  0  0
   -9.8782   -6.0947    0.0000 N   0  0  0
   -8.8852   -7.1904    0.0000 C   0  0  0
   -6.2488   -7.3273    0.0000 C   0  0  0
  1  2  1
  2  3  1
  2  4  1
  2  5  1
  5  6  2
  5  7  1
  6  8  1
  6  9  1
  7 10  2
  8 11  1
  8 12  2
  9 13  1
 10 14  1
 11 15  2
 13 16  1
 14 17  1
 16 18  2
 16 19  1
 17 20  1
 17 21  1
 18 22  1
 19 23  2
 20 24  1
 21 25  1
 22 26  2
 22 27  1
 28 27  1
 27 29  1
 27 30  1
 28 31  1  6  0
 28 32  1
 29 33  1
 32 34  2
 32 35  1
 34 36  1
 35 37  1
 35 38  1
 10 12  1
 11 13  1
 23 26  1
 24 25  1
 30 33  1
 36 37  2
M  END
> <COMPOUND_NAMES>
Example 673b (R) (Page No: 756)

> <Reference>
WO2019148005

> <IC50_range_nM>
<100

> <smiles>
Cn1cnnc1[C@@H](C1(COC1)c1cccc(c1)N1Cc2c(cc(CN3CCCC3)cc2C(F)(F)F)C1=O)F

$$$$
C28H29F4N5O2
  MOLSOFT 03092310482D

 39 44  0  0  1  0  0  0  0  0999 V2000
    0.0000   -0.0000    0.0000 F   0  0  0
    1.0790    1.0105    0.0000 C   0  0  0
    2.0553   -0.0685    0.0000 F   0  0  0
    2.1581    2.0211    0.0000 F   0  0  0
    0.0685    2.1238    0.0000 C   0  0  0
   -1.4045    1.8327    0.0000 C   0  0  0
    0.5138    3.5454    0.0000 C   0  0  0
   -2.4150    2.9460    0.0000 C   0  0  0
   -2.1581    0.5652    0.0000 C   0  0  0
   -0.4967    4.6587    0.0000 C   0  0  0
   -3.7852    2.3636    0.0000 C   0  0  0
   -1.9697    4.3676    0.0000 C   0  0  0
   -3.6311    0.8906    0.0000 N   0  0  0
   -0.0514    6.0803    0.0000 C   0  0  0
   -5.0869    3.1172    0.0000 O   0  0  0
   -4.7444   -0.0856    0.0000 C   0  0  0
    1.3873    6.4057    0.0000 N   0  0  0
   -4.4532   -1.5244    0.0000 C   0  0  0
   -6.1660    0.3939    0.0000 C   0  0  0
    1.8327    7.8273    0.0000 C   0  0  0
    2.3636    5.3267    0.0000 C   0  0  0
   -5.5665   -2.5006    0.0000 C   0  0  0
   -7.2793   -0.5823    0.0000 C   0  0  0
    3.2714    8.1528    0.0000 C   0  0  0
    3.8023    5.6521    0.0000 C   0  0  0
   -6.9881   -2.0211    0.0000 C   0  0  0
   -5.1212   -4.6587    0.0000 C   0  0  0
    4.2477    7.0737    0.0000 C   0  0  0
   -6.5428   -4.1791    0.0000 C   0  0  2
   -3.8880   -5.4466    0.0000 C   0  0  0
   -5.9433   -5.8919    0.0000 C   0  0  0
   -6.8682   -2.7062    0.0000 F   0  0  0
   -7.6561   -5.1554    0.0000 C   0  0  0
   -4.7101   -6.6798    0.0000 O   0  0  0
   -9.1290   -4.8300    0.0000 N   0  0  0
   -7.5190   -6.6113    0.0000 N   0  0  0
   -9.8827   -6.0974    0.0000 N   0  0  0
   -8.8893   -7.1936    0.0000 C   0  0  0
   -6.2516   -7.3306    0.0000 C   0  0  0
  1  2  1
  2  3  1
  2  4  1
  2  5  1
  5  6  2
  5  7  1
  6  8  1
  6  9  1
  7 10  2
  8 11  1
  8 12  2
  9 13  1
 10 14  1
 11 15  2
 13 16  1
 14 17  1
 16 18  2
 16 19  1
 17 20  1
 17 21  1
 18 22  1
 19 23  2
 20 24  1
 21 25  1
 22 26  2
 22 27  1
 24 28  1
 29 27  1
 27 30  1
 27 31  1
 29 32  1  1  0
 29 33  1
 30 34  1
 33 35  2
 33 36  1
 35 37  1
 36 38  1
 36 39  1
 10 12  1
 11 13  1
 23 26  1
 25 28  1
 31 34  1
 37 38  2
M  END
> <COMPOUND_NAMES>
Example 674a (S) (Page No: 756)

> <Reference>
WO2019148005

> <IC50_range_nM>
<100

> <smiles>
Cn1cnnc1[C@H](C1(COC1)c1cccc(c1)N1Cc2c(cc(CN3CCCCC3)cc2C(F)(F)F)C1=O)F

$$$$
C28H29F4N5O2
  MOLSOFT 03092310482D

 39 44  0  0  1  0  0  0  0  0999 V2000
    0.0000   -0.0000    0.0000 F   0  0  0
    1.0790    1.0105    0.0000 C   0  0  0
    2.0553   -0.0685    0.0000 F   0  0  0
    2.1581    2.0211    0.0000 F   0  0  0
    0.0685    2.1238    0.0000 C   0  0  0
   -1.4045    1.8327    0.0000 C   0  0  0
    0.5138    3.5454    0.0000 C   0  0  0
   -2.4150    2.9460    0.0000 C   0  0  0
   -2.1581    0.5652    0.0000 C   0  0  0
   -0.4967    4.6587    0.0000 C   0  0  0
   -3.7852    2.3636    0.0000 C   0  0  0
   -1.9697    4.3676    0.0000 C   0  0  0
   -3.6311    0.8906    0.0000 N   0  0  0
   -0.0514    6.0803    0.0000 C   0  0  0
   -5.0869    3.1172    0.0000 O   0  0  0
   -4.7444   -0.0856    0.0000 C   0  0  0
    1.3873    6.4057    0.0000 N   0  0  0
   -4.4532   -1.5244    0.0000 C   0  0  0
   -6.1660    0.3939    0.0000 C   0  0  0
    1.8327    7.8273    0.0000 C   0  0  0
    2.3636    5.3267    0.0000 C   0  0  0
   -5.5665   -2.5006    0.0000 C   0  0  0
   -7.2793   -0.5823    0.0000 C   0  0  0
    3.2714    8.1528    0.0000 C   0  0  0
    3.8023    5.6521    0.0000 C   0  0  0
   -6.9881   -2.0211    0.0000 C   0  0  0
   -5.1212   -4.6587    0.0000 C   0  0  0
    4.2477    7.0737    0.0000 C   0  0  0
   -6.5428   -4.1791    0.0000 C   0  0  1
   -3.8880   -5.4466    0.0000 C   0  0  0
   -5.9433   -5.8919    0.0000 C   0  0  0
   -6.8682   -2.7062    0.0000 F   0  0  0
   -7.6561   -5.1554    0.0000 C   0  0  0
   -4.7101   -6.6798    0.0000 O   0  0  0
   -9.1290   -4.8300    0.0000 N   0  0  0
   -7.5190   -6.6113    0.0000 N   0  0  0
   -9.8827   -6.0974    0.0000 N   0  0  0
   -8.8893   -7.1936    0.0000 C   0  0  0
   -6.2516   -7.3306    0.0000 C   0  0  0
  1  2  1
  2  3  1
  2  4  1
  2  5  1
  5  6  2
  5  7  1
  6  8  1
  6  9  1
  7 10  2
  8 11  1
  8 12  2
  9 13  1
 10 14  1
 11 15  2
 13 16  1
 14 17  1
 16 18  2
 16 19  1
 17 20  1
 17 21  1
 18 22  1
 19 23  2
 20 24  1
 21 25  1
 22 26  2
 22 27  1
 24 28  1
 29 27  1
 27 30  1
 27 31  1
 29 32  1  6  0
 29 33  1
 30 34  1
 33 35  2
 33 36  1
 35 37  1
 36 38  1
 36 39  1
 10 12  1
 11 13  1
 23 26  1
 25 28  1
 31 34  1
 37 38  2
M  END
> <COMPOUND_NAMES>
Example 674b (R) (Page No: 757)

> <Reference>
WO2019148005

> <IC50_range_nM>
<100

> <smiles>
Cn1cnnc1[C@@H](C1(COC1)c1cccc(c1)N1Cc2c(cc(CN3CCCCC3)cc2C(F)(F)F)C1=O)F

$$$$
C28H28F5N5O2
  MOLSOFT 03092310482D

 40 45  0  0  1  0  0  0  0  0999 V2000
    0.0000   -0.0000    0.0000 F   0  0  0
    1.0794    1.0109    0.0000 C   0  0  0
    2.0561   -0.0685    0.0000 F   0  0  0
    2.1589    2.0218    0.0000 F   0  0  0
    0.0685    2.1246    0.0000 C   0  0  0
   -1.4050    1.8333    0.0000 C   0  0  0
    0.5140    3.5467    0.0000 C   0  0  0
   -2.4159    2.9470    0.0000 C   0  0  0
   -2.1589    0.5654    0.0000 C   0  0  0
   -0.4969    4.6604    0.0000 C   0  0  0
   -3.7866    2.3645    0.0000 C   0  0  0
   -1.9704    4.3692    0.0000 C   0  0  0
   -3.6324    0.8910    0.0000 N   0  0  0
   -0.0514    6.0826    0.0000 C   0  0  0
   -5.0888    3.1184    0.0000 O   0  0  0
   -4.7461   -0.0857    0.0000 C   0  0  0
    1.3879    6.4081    0.0000 N   0  0  0
   -4.4548   -1.5249    0.0000 C   0  0  0
   -6.1682    0.3941    0.0000 C   0  0  0
    1.8333    7.8302    0.0000 C   0  0  0
    2.3645    5.3287    0.0000 C   0  0  0
   -5.5685   -2.5016    0.0000 C   0  0  0
   -7.2819   -0.5826    0.0000 C   0  0  0
    3.2726    8.1558    0.0000 C   0  0  0
    3.8037    5.6542    0.0000 C   0  0  0
   -6.9907   -2.0218    0.0000 C   0  0  0
   -5.1231   -4.6604    0.0000 C   0  0  0
    4.2492    7.0763    0.0000 C   0  0  0
   -6.5452   -4.1807    0.0000 C   0  0  2
   -3.8894   -5.4486    0.0000 C   0  0  0
   -5.9455   -5.8941    0.0000 C   0  0  0
    5.6885    7.4019    0.0000 F   0  0  0
   -6.8707   -2.7072    0.0000 F   0  0  0
   -7.6589   -5.1573    0.0000 C   0  0  0
   -4.7118   -6.6823    0.0000 O   0  0  0
   -9.1324   -4.8318    0.0000 N   0  0  0
   -7.5218   -6.6137    0.0000 N   0  0  0
   -9.8863   -6.0997    0.0000 N   0  0  0
   -8.8925   -7.1963    0.0000 C   0  0  0
   -6.2539   -7.3333    0.0000 C   0  0  0
  1  2  1
  2  3  1
  2  4  1
  2  5  1
  5  6  2
  5  7  1
  6  8  1
  6  9  1
  7 10  2
  8 11  1
  8 12  2
  9 13  1
 10 14  1
 11 15  2
 13 16  1
 14 17  1
 16 18  2
 16 19  1
 17 20  1
 17 21  1
 18 22  1
 19 23  2
 20 24  1
 21 25  1
 22 26  2
 22 27  1
 24 28  1
 29 27  1
 27 30  1
 27 31  1
 28 32  1
 29 33  1  1  0
 29 34  1
 30 35  1
 34 36  2
 34 37  1
 36 38  1
 37 39  1
 37 40  1
 10 12  1
 11 13  1
 23 26  1
 25 28  1
 31 35  1
 38 39  2
M  END
> <COMPOUND_NAMES>
Example 670a (S) (Page No: 752)

> <Reference>
WO2019148005

> <IC50_range_nM>
<100

> <smiles>
Cn1cnnc1[C@H](C1(COC1)c1cccc(c1)N1Cc2c(cc(CN3CCC(CC3)F)cc2C(F)(F)F)C1=O)F

$$$$
C28H28F5N5O2
  MOLSOFT 03092310482D

 40 45  0  0  1  0  0  0  0  0999 V2000
    0.0000   -0.0000    0.0000 F   0  0  0
    1.0794    1.0109    0.0000 C   0  0  0
    2.0561   -0.0685    0.0000 F   0  0  0
    2.1589    2.0218    0.0000 F   0  0  0
    0.0685    2.1246    0.0000 C   0  0  0
   -1.4050    1.8333    0.0000 C   0  0  0
    0.5140    3.5467    0.0000 C   0  0  0
   -2.4159    2.9470    0.0000 C   0  0  0
   -2.1589    0.5654    0.0000 C   0  0  0
   -0.4969    4.6604    0.0000 C   0  0  0
   -3.7866    2.3645    0.0000 C   0  0  0
   -1.9704    4.3692    0.0000 C   0  0  0
   -3.6324    0.8910    0.0000 N   0  0  0
   -0.0514    6.0826    0.0000 C   0  0  0
   -5.0888    3.1184    0.0000 O   0  0  0
   -4.7461   -0.0857    0.0000 C   0  0  0
    1.3879    6.4081    0.0000 N   0  0  0
   -4.4548   -1.5249    0.0000 C   0  0  0
   -6.1682    0.3941    0.0000 C   0  0  0
    1.8333    7.8302    0.0000 C   0  0  0
    2.3645    5.3287    0.0000 C   0  0  0
   -5.5685   -2.5016    0.0000 C   0  0  0
   -7.2819   -0.5826    0.0000 C   0  0  0
    3.2726    8.1558    0.0000 C   0  0  0
    3.8037    5.6542    0.0000 C   0  0  0
   -6.9907   -2.0218    0.0000 C   0  0  0
   -5.1231   -4.6604    0.0000 C   0  0  0
    4.2492    7.0763    0.0000 C   0  0  0
   -6.5452   -4.1807    0.0000 C   0  0  1
   -3.8894   -5.4486    0.0000 C   0  0  0
   -5.9455   -5.8941    0.0000 C   0  0  0
    5.6885    7.4019    0.0000 F   0  0  0
   -6.8707   -2.7072    0.0000 F   0  0  0
   -7.6589   -5.1573    0.0000 C   0  0  0
   -4.7118   -6.6823    0.0000 O   0  0  0
   -9.1324   -4.8318    0.0000 N   0  0  0
   -7.5218   -6.6137    0.0000 N   0  0  0
   -9.8863   -6.0997    0.0000 N   0  0  0
   -8.8925   -7.1963    0.0000 C   0  0  0
   -6.2539   -7.3333    0.0000 C   0  0  0
  1  2  1
  2  3  1
  2  4  1
  2  5  1
  5  6  2
  5  7  1
  6  8  1
  6  9  1
  7 10  2
  8 11  1
  8 12  2
  9 13  1
 10 14  1
 11 15  2
 13 16  1
 14 17  1
 16 18  2
 16 19  1
 17 20  1
 17 21  1
 18 22  1
 19 23  2
 20 24  1
 21 25  1
 22 26  2
 22 27  1
 24 28  1
 29 27  1
 27 30  1
 27 31  1
 28 32  1
 29 33  1  6  0
 29 34  1
 30 35  1
 34 36  2
 34 37  1
 36 38  1
 37 39  1
 37 40  1
 10 12  1
 11 13  1
 23 26  1
 25 28  1
 31 35  1
 38 39  2
M  END
> <COMPOUND_NAMES>
Example 670b (R) (Page No: 753)

> <Reference>
WO2019148005

> <IC50_range_nM>
<100

> <smiles>
Cn1cnnc1[C@@H](C1(COC1)c1cccc(c1)N1Cc2c(cc(CN3CCC(CC3)F)cc2C(F)(F)F)C1=O)F

$$$$
C26H23F6N5O2
  MOLSOFT 03092310482D

 39 44  0  0  0  0  0  0  0  0999 V2000
    0.0000   -0.0000    0.0000 F   0  0  0
    1.0971    1.0296    0.0000 C   0  0  0
    2.0929   -0.0675    0.0000 F   0  0  0
    2.1942    2.0591    0.0000 F   0  0  0
    0.0675    2.1604    0.0000 C   0  0  0
   -1.4178    1.8566    0.0000 C   0  0  0
    0.5063    3.6119    0.0000 C   0  0  0
   -2.4473    2.9874    0.0000 C   0  0  0
   -2.1942    0.5739    0.0000 C   0  0  0
   -0.5232    4.7428    0.0000 C   0  0  0
   -3.8313    2.3967    0.0000 C   0  0  0
   -2.0085    4.4389    0.0000 C   0  0  0
   -3.6794    0.9114    0.0000 N   0  0  0
   -0.0844    6.1943    0.0000 C   0  0  0
   -5.1478    3.1731    0.0000 O   0  0  0
   -4.8103   -0.0844    0.0000 C   0  0  0
   -1.1140    7.3251    0.0000 N   0  0  0
   -4.5065   -1.5359    0.0000 C   0  0  0
   -6.2618    0.3882    0.0000 C   0  0  0
   -2.6330    7.4264    0.0000 C   0  0  0
   -1.0464    8.8441    0.0000 C   0  0  0
   -5.6373   -2.5317    0.0000 C   0  0  0
   -7.3926   -0.6076    0.0000 C   0  0  0
   -2.5655    8.9454    0.0000 C   0  0  0
   -7.0888   -2.0591    0.0000 C   0  0  0
   -5.4685   -3.3925    0.0000 C   0  0  0
   -3.5950   10.0762    0.0000 F   0  0  0
   -7.6289   -2.6836    0.0000 C   0  0  0
   -4.2195   -4.1858    0.0000 C   0  0  0
   -6.2955   -4.6415    0.0000 C   0  0  0
   -8.1015   -4.1014    0.0000 F   0  0  0
   -7.3757   -1.8060    0.0000 F   0  0  0
   -9.0804   -2.2110    0.0000 C   0  0  0
   -5.0466   -5.4348    0.0000 O   0  0  0
   -9.5530   -0.7595    0.0000 N   0  0  0
  -10.3125   -3.0718    0.0000 N   0  0  0
  -11.0720   -0.7426    0.0000 N   0  0  0
  -11.5446   -2.1773    0.0000 C   0  0  0
  -10.3294   -4.5571    0.0000 C   0  0  0
  1  2  1
  2  3  1
  2  4  1
  2  5  1
  5  6  2
  5  7  1
  6  8  1
  6  9  1
  7 10  2
  8 11  1
  8 12  2
  9 13  1
 10 14  1
 11 15  2
 13 16  1
 14 17  1
 16 18  2
 16 19  1
 17 20  1
 17 21  1
 18 22  1
 19 23  2
 20 24  1
 22 25  2
 22 26  1
 24 27  1
 26 28  1
 26 29  1
 26 30  1
 28 31  1
 28 32  1
 28 33  1
 29 34  1
 33 35  2
 33 36  1
 35 37  1
 36 38  1
 36 39  1
 10 12  1
 11 13  1
 21 24  1
 23 25  1
 30 34  1
 37 38  2
M  END
> <COMPOUND_NAMES>
Example 679 (Page No: 760)

> <Reference>
WO2019148005

> <IC50_range_nM>
<100

> <smiles>
Cn1cnnc1C(C1(COC1)c1cccc(c1)N1Cc2c(cc(CN3CC(C3)F)cc2C(F)(F)F)C1=O)(F)F

$$$$
C28H27F6N5O2
  MOLSOFT 03092310482D

 41 46  0  0  1  0  0  0  0  0999 V2000
    0.0000   -0.0000    0.0000 F   0  0  0
   -0.0119   -1.5018    0.0000 C   0  0  0
    1.4899   -1.4899    0.0000 F   0  0  0
   -1.5376   -1.4899    0.0000 F   0  0  0
   -0.0238   -3.0036    0.0000 C   0  0  0
   -1.3469   -3.7545    0.0000 C   0  0  0
    1.2754   -3.7545    0.0000 C   0  0  0
   -1.3588   -5.2564    0.0000 C   0  0  0
   -2.8010   -3.2778    0.0000 C   0  0  0
    1.2634   -5.2564    0.0000 C   0  0  0
   -2.8129   -5.7093    0.0000 C   0  0  0
   -0.0596   -5.9954    0.0000 C   0  0  0
   -3.7069   -4.4935    0.0000 N   0  0  0
    2.5626   -5.9954    0.0000 C   0  0  1
   -3.2897   -7.1396    0.0000 O   0  0  0
   -5.2325   -4.4816    0.0000 C   0  0  0
    3.8618   -5.2325    0.0000 N   0  0  0
    2.5507   -7.4972    0.0000 C   0  0  0
   -5.9954   -5.7808    0.0000 C   0  0  0
   -5.9954   -3.1586    0.0000 C   0  0  0
    5.2325   -5.8404    0.0000 C   0  0  0
    4.0048   -3.7188    0.0000 C   0  0  0
   -7.5210   -5.7689    0.0000 C   0  0  0
   -7.5210   -3.1467    0.0000 C   0  0  0
    6.2337   -4.7081    0.0000 C   0  0  2
    5.4709   -3.3970    0.0000 C   0  0  0
   -8.2838   -4.4459    0.0000 C   0  0  0
   -7.9859   -6.5436    0.0000 C   0  0  0
    7.7236   -4.8511    0.0000 F   0  0  0
   -8.7487   -5.2206    0.0000 C   0  0  0
   -7.6044   -7.9978    0.0000 C   0  0  0
   -9.4638   -6.9251    0.0000 C   0  0  0
   -7.4495   -4.4578    0.0000 F   0  0  0
  -10.0717   -5.9596    0.0000 F   0  0  0
   -9.5115   -3.8976    0.0000 C   0  0  0
   -9.0824   -8.3792    0.0000 O   0  0  0
  -11.0253   -3.7307    0.0000 N   0  0  0
   -8.9036   -2.5030    0.0000 N   0  0  0
  -11.3471   -2.2408    0.0000 N   0  0  0
  -10.0360   -1.4780    0.0000 C   0  0  0
   -7.4376   -2.1812    0.0000 C   0  0  0
  1  2  1
  2  3  1
  2  4  1
  2  5  1
  5  6  2
  5  7  1
  6  8  1
  6  9  1
  7 10  2
  8 11  1
  8 12  2
  9 13  1
 14 10  1
 11 15  2
 13 16  1
 14 17  1  1  0
 14 18  1
 16 19  2
 16 20  1
 17 21  1
 17 22  1
 19 23  1
 20 24  2
 25 21  1
 22 26  1
 23 27  2
 23 28  1
 25 29  1  6  0
 28 30  1
 28 31  1
 28 32  1
 30 33  1
 30 34  1
 30 35  1
 31 36  1
 35 37  2
 35 38  1
 37 39  1
 38 40  1
 38 41  1
 10 12  1
 11 13  1
 24 27  1
 25 26  1
 32 36  1
 39 40  2
M  END
> <COMPOUND_NAMES>
Example 570 (Stereo) (Page No: 697)

> <Reference>
WO2019148005

> <IC50_range_nM>
<100

> <smiles>
C[C@@H](c1cc2C(N(Cc2c(c1)C(F)(F)F)c1cccc(c1)C1(COC1)C(c1nncn1C)(F)F)=O)N1CC[C@@H](C1)F

$$$$
C28H27F6N5O2
  MOLSOFT 03092310482D

 41 46  0  0  1  0  0  0  0  0999 V2000
    0.0000   -0.0000    0.0000 F   0  0  0
   -0.0119   -1.5018    0.0000 C   0  0  0
    1.4899   -1.4899    0.0000 F   0  0  0
   -1.5376   -1.4899    0.0000 F   0  0  0
   -0.0238   -3.0036    0.0000 C   0  0  0
   -1.3469   -3.7545    0.0000 C   0  0  0
    1.2754   -3.7545    0.0000 C   0  0  0
   -1.3588   -5.2564    0.0000 C   0  0  0
   -2.8010   -3.2778    0.0000 C   0  0  0
    1.2634   -5.2564    0.0000 C   0  0  0
   -2.8129   -5.7093    0.0000 C   0  0  0
   -0.0596   -5.9954    0.0000 C   0  0  0
   -3.7069   -4.4935    0.0000 N   0  0  0
    2.5626   -5.9954    0.0000 C   0  0  2
   -3.2897   -7.1396    0.0000 O   0  0  0
   -5.2325   -4.4816    0.0000 C   0  0  0
    3.8618   -5.2325    0.0000 N   0  0  0
    2.5507   -7.4972    0.0000 C   0  0  0
   -5.9954   -5.7808    0.0000 C   0  0  0
   -5.9954   -3.1586    0.0000 C   0  0  0
    5.2325   -5.8404    0.0000 C   0  0  0
    4.0048   -3.7188    0.0000 C   0  0  0
   -7.5210   -5.7689    0.0000 C   0  0  0
   -7.5210   -3.1467    0.0000 C   0  0  0
    6.2337   -4.7081    0.0000 C   0  0  2
    5.4709   -3.3970    0.0000 C   0  0  0
   -8.2838   -4.4459    0.0000 C   0  0  0
   -7.9859   -6.5436    0.0000 C   0  0  0
    7.7236   -4.8511    0.0000 F   0  0  0
   -8.7487   -5.2206    0.0000 C   0  0  0
   -7.6044   -7.9978    0.0000 C   0  0  0
   -9.4638   -6.9251    0.0000 C   0  0  0
   -7.4495   -4.4578    0.0000 F   0  0  0
  -10.0717   -5.9596    0.0000 F   0  0  0
   -9.5115   -3.8976    0.0000 C   0  0  0
   -9.0824   -8.3792    0.0000 O   0  0  0
  -11.0253   -3.7307    0.0000 N   0  0  0
   -8.9036   -2.5030    0.0000 N   0  0  0
  -11.3471   -2.2408    0.0000 N   0  0  0
  -10.0360   -1.4780    0.0000 C   0  0  0
   -7.4376   -2.1812    0.0000 C   0  0  0
  1  2  1
  2  3  1
  2  4  1
  2  5  1
  5  6  2
  5  7  1
  6  8  1
  6  9  1
  7 10  2
  8 11  1
  8 12  2
  9 13  1
 14 10  1
 11 15  2
 13 16  1
 14 17  1  6  0
 14 18  1
 16 19  2
 16 20  1
 17 21  1
 17 22  1
 19 23  1
 20 24  2
 25 21  1
 22 26  1
 23 27  2
 23 28  1
 25 29  1  6  0
 28 30  1
 28 31  1
 28 32  1
 30 33  1
 30 34  1
 30 35  1
 31 36  1
 35 37  2
 35 38  1
 37 39  1
 38 40  1
 38 41  1
 10 12  1
 11 13  1
 24 27  1
 25 26  1
 32 36  1
 39 40  2
M  END
> <COMPOUND_NAMES>
Example 571 (Stereo) (Page No: 697)

> <Reference>
WO2019148005

> <IC50_range_nM>
<100

> <smiles>
C[C@H](c1cc2C(N(Cc2c(c1)C(F)(F)F)c1cccc(c1)C1(COC1)C(c1nncn1C)(F)F)=O)N1CC[C@@H](C1)F

$$$$
C28H27F6N5O2
  MOLSOFT 03092310482D

 41 46  0  0  1  0  0  0  0  0999 V2000
    0.0000   -0.0000    0.0000 F   0  0  0
   -0.0119   -1.5018    0.0000 C   0  0  0
    1.4899   -1.4899    0.0000 F   0  0  0
   -1.5376   -1.4899    0.0000 F   0  0  0
   -0.0238   -3.0036    0.0000 C   0  0  0
   -1.3469   -3.7545    0.0000 C   0  0  0
    1.2754   -3.7545    0.0000 C   0  0  0
   -1.3588   -5.2564    0.0000 C   0  0  0
   -2.8010   -3.2778    0.0000 C   0  0  0
    1.2634   -5.2564    0.0000 C   0  0  0
   -2.8129   -5.7093    0.0000 C   0  0  0
   -0.0596   -5.9954    0.0000 C   0  0  0
   -3.7069   -4.4935    0.0000 N   0  0  0
    2.5626   -5.9954    0.0000 C   0  0  3
   -3.2897   -7.1396    0.0000 O   0  0  0
   -5.2325   -4.4816    0.0000 C   0  0  0
    3.8618   -5.2325    0.0000 N   0  0  0
    2.5507   -7.4972    0.0000 C   0  0  0
   -5.9954   -5.7808    0.0000 C   0  0  0
   -5.9954   -3.1586    0.0000 C   0  0  0
    5.2325   -5.8404    0.0000 C   0  0  0
    4.0048   -3.7188    0.0000 C   0  0  0
   -7.5210   -5.7689    0.0000 C   0  0  0
   -7.5210   -3.1467    0.0000 C   0  0  0
    6.2337   -4.7081    0.0000 C   0  0  2
    5.4709   -3.3970    0.0000 C   0  0  0
   -8.2838   -4.4459    0.0000 C   0  0  0
   -7.9859   -6.5436    0.0000 C   0  0  0
    7.7236   -4.8511    0.0000 F   0  0  0
   -8.7487   -5.2206    0.0000 C   0  0  0
   -7.6044   -7.9978    0.0000 C   0  0  0
   -9.4638   -6.9251    0.0000 C   0  0  0
   -7.4495   -4.4578    0.0000 F   0  0  0
  -10.0717   -5.9596    0.0000 F   0  0  0
   -9.5115   -3.8976    0.0000 C   0  0  0
   -9.0824   -8.3792    0.0000 O   0  0  0
  -11.0253   -3.7307    0.0000 N   0  0  0
   -8.9036   -2.5030    0.0000 N   0  0  0
  -11.3471   -2.2408    0.0000 N   0  0  0
  -10.0360   -1.4780    0.0000 C   0  0  0
   -7.4376   -2.1812    0.0000 C   0  0  0
  1  2  1
  2  3  1
  2  4  1
  2  5  1
  5  6  2
  5  7  1
  6  8  1
  6  9  1
  7 10  2
  8 11  1
  8 12  2
  9 13  1
 14 10  1
 11 15  2
 13 16  1
 14 17  1
 14 18  1
 16 19  2
 16 20  1
 17 21  1
 17 22  1
 19 23  1
 20 24  2
 25 21  1
 22 26  1
 23 27  2
 23 28  1
 25 29  1  6  0
 28 30  1
 28 31  1
 28 32  1
 30 33  1
 30 34  1
 30 35  1
 31 36  1
 35 37  2
 35 38  1
 37 39  1
 38 40  1
 38 41  1
 10 12  1
 11 13  1
 24 27  1
 25 26  1
 32 36  1
 39 40  2
M  END
> <COMPOUND_NAMES>
Example 678 (S) (Page No: 760)

> <Reference>
WO2019148005

> <IC50_range_nM>
<100

> <smiles>
CC(c1cc2C(N(Cc2c(c1)C(F)(F)F)c1cccc(c1)C1(COC1)C(c1nncn1C)(F)F)=O)N1CC[C@@H](C1)F

$$$$
C29H29F4N5O2
  MOLSOFT 03092310482D

 40 46  0  0  1  0  0  0  0  0999 V2000
    0.0000   -0.0000    0.0000 F   0  0  0
    1.0801    1.0115    0.0000 C   0  0  0
    2.0573   -0.0686    0.0000 F   0  0  0
    2.1601    2.0230    0.0000 F   0  0  0
    0.0686    2.1258    0.0000 C   0  0  0
   -1.4058    1.8344    0.0000 C   0  0  0
    0.5143    3.5488    0.0000 C   0  0  0
   -2.4173    2.9488    0.0000 C   0  0  0
   -2.1601    0.5658    0.0000 C   0  0  0
   -0.4972    4.6632    0.0000 C   0  0  0
   -3.7888    2.3659    0.0000 C   0  0  0
   -1.9716    4.3717    0.0000 C   0  0  0
   -3.6345    0.8915    0.0000 N   0  0  0
   -0.0514    6.0861    0.0000 C   0  0  0
   -5.0918    3.1202    0.0000 O   0  0  0
   -4.7489   -0.0857    0.0000 C   0  0  0
    1.3887    6.4118    0.0000 N   0  0  0
   -4.4574   -1.5258    0.0000 C   0  0  0
   -6.1718    0.3943    0.0000 C   0  0  0
    2.4687    5.4346    0.0000 C   0  0  0
    1.9716    7.7834    0.0000 C   0  0  0
   -5.5718   -2.5030    0.0000 C   0  0  0
   -7.2862   -0.5829    0.0000 C   0  0  0
    3.7374    6.1890    0.0000 C   0  0  0
    3.4288    7.6462    0.0000 C   0  0  0
   -6.9947   -2.0230    0.0000 C   0  0  0
   -5.1260   -4.6632    0.0000 C   0  0  0
    5.1946    6.3604    0.0000 C   0  0  0
    4.5946    5.0060    0.0000 C   0  0  0
   -6.5490   -4.1831    0.0000 C   0  0  2
   -3.8917   -5.4518    0.0000 C   0  0  0
   -5.9490   -5.8975    0.0000 C   0  0  0
   -6.8747   -2.7087    0.0000 F   0  0  0
   -7.6633   -5.1603    0.0000 C   0  0  0
   -4.7146   -6.6861    0.0000 O   0  0  0
   -9.1377   -4.8346    0.0000 N   0  0  0
   -7.5262   -6.6176    0.0000 N   0  0  0
   -9.8921   -6.1032    0.0000 N   0  0  0
   -8.8977   -7.2005    0.0000 C   0  0  0
   -6.2575   -7.3376    0.0000 C   0  0  0
  1  2  1
  2  3  1
  2  4  1
  2  5  1
  5  6  2
  5  7  1
  6  8  1
  6  9  1
  7 10  2
  8 11  1
  8 12  2
  9 13  1
 10 14  1
 11 15  2
 13 16  1
 14 17  1
 16 18  2
 16 19  1
 17 20  1
 17 21  1
 18 22  1
 19 23  2
 20 24  1
 21 25  1
 22 26  2
 22 27  1
 24 28  1
 24 29  1
 30 27  1
 27 31  1
 27 32  1
 30 33  1  1  0
 30 34  1
 31 35  1
 34 36  2
 34 37  1
 36 38  1
 37 39  1
 37 40  1
 10 12  1
 11 13  1
 23 26  1
 24 25  1
 28 29  1
 32 35  1
 38 39  2
M  END
> <COMPOUND_NAMES>
Example 618 (S) (Page No: 726)

> <Reference>
WO2019148005

> <IC50_range_nM>
<100

> <smiles>
Cn1cnnc1[C@H](C1(COC1)c1cccc(c1)N1Cc2c(cc(CN3CCC4(CC4)C3)cc2C(F)(F)F)C1=O)F

$$$$
C30H31F4N5O2
  MOLSOFT 03092310482D

 41 47  0  0  1  0  0  0  0  0999 V2000
    0.0000   -0.0000    0.0000 F   0  0  0
   -0.0152   -1.4732    0.0000 C   0  0  0
    1.4580   -1.4580    0.0000 F   0  0  0
   -1.5188   -1.4580    0.0000 F   0  0  0
   -0.0304   -2.9464    0.0000 C   0  0  0
   -1.3365   -3.6755    0.0000 C   0  0  0
    1.2454   -3.6755    0.0000 C   0  0  0
   -1.3517   -5.1487    0.0000 C   0  0  0
   -2.7642   -3.2046    0.0000 C   0  0  0
    1.2302   -5.1487    0.0000 C   0  0  0
   -2.7794   -5.5891    0.0000 C   0  0  0
   -0.0759   -5.8777    0.0000 C   0  0  0
   -3.6451   -4.3893    0.0000 N   0  0  0
    2.5060   -5.8777    0.0000 C   0  0  1
   -3.2502   -6.9864    0.0000 O   0  0  0
   -5.1487   -4.3741    0.0000 C   0  0  0
    3.7818   -5.1183    0.0000 N   0  0  0
    2.4908   -7.3509    0.0000 C   0  0  0
   -5.9081   -3.0679    0.0000 C   0  0  0
   -5.9081   -5.6499    0.0000 C   0  0  0
    5.1183   -5.7106    0.0000 C   0  0  0
    3.9185   -3.6299    0.0000 C   0  0  0
   -7.4117   -3.0528    0.0000 C   0  0  0
   -7.4117   -5.6347    0.0000 C   0  0  0
    6.0903   -4.5867    0.0000 C   0  0  0
    5.3613   -3.3109    0.0000 C   0  0  0
   -8.1710   -4.3285    0.0000 C   0  0  0
   -8.5356   -1.1087    0.0000 C   0  0  0
    7.4268   -3.9640    0.0000 C   0  0  0
    7.2750   -5.4372    0.0000 C   0  0  0
   -7.0623   -1.0935    0.0000 C   0  0  2
   -9.9784   -0.7138    0.0000 C   0  0  0
   -8.1710    0.3341    0.0000 C   0  0  0
   -6.3333   -2.3693    0.0000 F   0  0  0
   -6.3333    0.2126    0.0000 C   0  0  0
   -9.6139    0.7290    0.0000 O   0  0  0
   -6.9560    1.5795    0.0000 N   0  0  0
   -4.8753    0.3797    0.0000 N   0  0  0
   -5.8625    2.5819    0.0000 N   0  0  0
   -4.5867    1.8529    0.0000 C   0  0  0
   -3.9033   -0.7138    0.0000 C   0  0  0
  1  2  1
  2  3  1
  2  4  1
  2  5  1
  5  6  2
  5  7  1
  6  8  1
  6  9  1
  7 10  2
  8 11  1
  8 12  2
  9 13  1
 14 10  1
 11 15  2
 13 16  1
 14 17  1  1  0
 14 18  1
 16 19  2
 16 20  1
 17 21  1
 17 22  1
 19 23  1
 20 24  2
 21 25  1
 22 26  1
 23 27  2
 23 28  1
 25 29  1
 25 30  1
 31 28  1
 28 32  1
 28 33  1
 31 34  1  1  0
 31 35  1
 32 36  1
 35 37  2
 35 38  1
 37 39  1
 38 40  1
 38 41  1
 10 12  1
 11 13  1
 24 27  1
 25 26  1
 29 30  1
 33 36  1
 39 40  2
M  END
> <COMPOUND_NAMES>
Example 515 (Stereo) (Page No: 655)

> <Reference>
WO2019148005

> <IC50_range_nM>
<100

> <smiles>
C[C@@H](c1cc2C(N(Cc2c(c1)C(F)(F)F)c1cccc(c1)C1(COC1)[C@@H](c1nncn1C)F)=O)N1CCC2(CC2)C1

$$$$
C30H31F4N5O2
  MOLSOFT 03092310482D

 41 47  0  0  1  0  0  0  0  0999 V2000
    0.0000   -0.0000    0.0000 F   0  0  0
   -0.0152   -1.4732    0.0000 C   0  0  0
    1.4580   -1.4580    0.0000 F   0  0  0
   -1.5188   -1.4580    0.0000 F   0  0  0
   -0.0304   -2.9464    0.0000 C   0  0  0
   -1.3365   -3.6755    0.0000 C   0  0  0
    1.2454   -3.6755    0.0000 C   0  0  0
   -1.3517   -5.1487    0.0000 C   0  0  0
   -2.7642   -3.2046    0.0000 C   0  0  0
    1.2302   -5.1487    0.0000 C   0  0  0
   -2.7794   -5.5891    0.0000 C   0  0  0
   -0.0759   -5.8777    0.0000 C   0  0  0
   -3.6451   -4.3893    0.0000 N   0  0  0
    2.5060   -5.8777    0.0000 C   0  0  1
   -3.2502   -6.9864    0.0000 O   0  0  0
   -5.1487   -4.3741    0.0000 C   0  0  0
    3.7818   -5.1183    0.0000 N   0  0  0
    2.4908   -7.3509    0.0000 C   0  0  0
   -5.9081   -3.0679    0.0000 C   0  0  0
   -5.9081   -5.6499    0.0000 C   0  0  0
    5.1183   -5.7106    0.0000 C   0  0  0
    3.9185   -3.6299    0.0000 C   0  0  0
   -7.4117   -3.0528    0.0000 C   0  0  0
   -7.4117   -5.6347    0.0000 C   0  0  0
    6.0903   -4.5867    0.0000 C   0  0  0
    5.3613   -3.3109    0.0000 C   0  0  0
   -8.1710   -4.3285    0.0000 C   0  0  0
   -8.5356   -1.1087    0.0000 C   0  0  0
    7.4268   -3.9640    0.0000 C   0  0  0
    7.2750   -5.4372    0.0000 C   0  0  0
   -7.0623   -1.0935    0.0000 C   0  0  2
   -9.9784   -0.7138    0.0000 C   0  0  0
   -8.1710    0.3341    0.0000 C   0  0  0
   -6.3333   -2.3693    0.0000 F   0  0  0
   -6.3333    0.2126    0.0000 C   0  0  0
   -9.6139    0.7290    0.0000 O   0  0  0
   -6.9560    1.5795    0.0000 N   0  0  0
   -4.8753    0.3797    0.0000 N   0  0  0
   -5.8625    2.5819    0.0000 N   0  0  0
   -4.5867    1.8529    0.0000 C   0  0  0
   -3.9033   -0.7138    0.0000 C   0  0  0
  1  2  1
  2  3  1
  2  4  1
  2  5  1
  5  6  2
  5  7  1
  6  8  1
  6  9  1
  7 10  2
  8 11  1
  8 12  2
  9 13  1
 14 10  1
 11 15  2
 13 16  1
 14 17  1  1  0
 14 18  1
 16 19  2
 16 20  1
 17 21  1
 17 22  1
 19 23  1
 20 24  2
 21 25  1
 22 26  1
 23 27  2
 23 28  1
 25 29  1
 25 30  1
 31 28  1
 28 32  1
 28 33  1
 31 34  1  1  0
 31 35  1
 32 36  1
 35 37  2
 35 38  1
 37 39  1
 38 40  1
 38 41  1
 10 12  1
 11 13  1
 24 27  1
 25 26  1
 29 30  1
 33 36  1
 39 40  2
M  END
> <COMPOUND_NAMES>
Example 576 (Stereo) (Page No: 701)

> <Reference>
WO2019148005

> <IC50_range_nM>
<100

> <smiles>
C[C@@H](c1cc2C(N(Cc2c(c1)C(F)(F)F)c1cccc(c1)C1(COC1)[C@@H](c1nncn1C)F)=O)N1CCC2(CC2)C1

$$$$
C30H31F4N5O2
  MOLSOFT 03092310482D

 41 47  0  0  1  0  0  0  0  0999 V2000
    0.0000   -0.0000    0.0000 F   0  0  0
   -0.0152   -1.4732    0.0000 C   0  0  0
    1.4580   -1.4580    0.0000 F   0  0  0
   -1.5188   -1.4580    0.0000 F   0  0  0
   -0.0304   -2.9464    0.0000 C   0  0  0
   -1.3365   -3.6755    0.0000 C   0  0  0
    1.2454   -3.6755    0.0000 C   0  0  0
   -1.3517   -5.1487    0.0000 C   0  0  0
   -2.7642   -3.2046    0.0000 C   0  0  0
    1.2302   -5.1487    0.0000 C   0  0  0
   -2.7794   -5.5891    0.0000 C   0  0  0
   -0.0759   -5.8777    0.0000 C   0  0  0
   -3.6451   -4.3893    0.0000 N   0  0  0
    2.5060   -5.8777    0.0000 C   0  0  2
   -3.2502   -6.9864    0.0000 O   0  0  0
   -5.1487   -4.3741    0.0000 C   0  0  0
    3.7818   -5.1183    0.0000 N   0  0  0
    2.4908   -7.3509    0.0000 C   0  0  0
   -5.9081   -3.0679    0.0000 C   0  0  0
   -5.9081   -5.6499    0.0000 C   0  0  0
    5.1183   -5.7106    0.0000 C   0  0  0
    3.9185   -3.6299    0.0000 C   0  0  0
   -7.4117   -3.0528    0.0000 C   0  0  0
   -7.4117   -5.6347    0.0000 C   0  0  0
    6.0903   -4.5867    0.0000 C   0  0  0
    5.3613   -3.3109    0.0000 C   0  0  0
   -8.1710   -4.3285    0.0000 C   0  0  0
   -8.5356   -1.1087    0.0000 C   0  0  0
    7.4268   -3.9640    0.0000 C   0  0  0
    7.2750   -5.4372    0.0000 C   0  0  0
   -7.0623   -1.0935    0.0000 C   0  0  2
   -9.9784   -0.7138    0.0000 C   0  0  0
   -8.1710    0.3341    0.0000 C   0  0  0
   -6.3333   -2.3693    0.0000 F   0  0  0
   -6.3333    0.2126    0.0000 C   0  0  0
   -9.6139    0.7290    0.0000 O   0  0  0
   -6.9560    1.5795    0.0000 N   0  0  0
   -4.8753    0.3797    0.0000 N   0  0  0
   -5.8625    2.5819    0.0000 N   0  0  0
   -4.5867    1.8529    0.0000 C   0  0  0
   -3.9033   -0.7138    0.0000 C   0  0  0
  1  2  1
  2  3  1
  2  4  1
  2  5  1
  5  6  2
  5  7  1
  6  8  1
  6  9  1
  7 10  2
  8 11  1
  8 12  2
  9 13  1
 14 10  1
 11 15  2
 13 16  1
 14 17  1  6  0
 14 18  1
 16 19  2
 16 20  1
 17 21  1
 17 22  1
 19 23  1
 20 24  2
 21 25  1
 22 26  1
 23 27  2
 23 28  1
 25 29  1
 25 30  1
 31 28  1
 28 32  1
 28 33  1
 31 34  1  1  0
 31 35  1
 32 36  1
 35 37  2
 35 38  1
 37 39  1
 38 40  1
 38 41  1
 10 12  1
 11 13  1
 24 27  1
 25 26  1
 29 30  1
 33 36  1
 39 40  2
M  END
> <COMPOUND_NAMES>
Example 516 (Stereo) (Page No: 655)

> <Reference>
WO2019148005

> <IC50_range_nM>
<100

> <smiles>
C[C@H](c1cc2C(N(Cc2c(c1)C(F)(F)F)c1cccc(c1)C1(COC1)[C@@H](c1nncn1C)F)=O)N1CCC2(CC2)C1

$$$$
C30H31F4N5O2
  MOLSOFT 03092310482D

 41 47  0  0  1  0  0  0  0  0999 V2000
    0.0000   -0.0000    0.0000 F   0  0  0
   -0.0152   -1.4732    0.0000 C   0  0  0
    1.4580   -1.4580    0.0000 F   0  0  0
   -1.5188   -1.4580    0.0000 F   0  0  0
   -0.0304   -2.9464    0.0000 C   0  0  0
   -1.3365   -3.6755    0.0000 C   0  0  0
    1.2454   -3.6755    0.0000 C   0  0  0
   -1.3517   -5.1487    0.0000 C   0  0  0
   -2.7642   -3.2046    0.0000 C   0  0  0
    1.2302   -5.1487    0.0000 C   0  0  0
   -2.7794   -5.5891    0.0000 C   0  0  0
   -0.0759   -5.8777    0.0000 C   0  0  0
   -3.6451   -4.3893    0.0000 N   0  0  0
    2.5060   -5.8777    0.0000 C   0  0  2
   -3.2502   -6.9864    0.0000 O   0  0  0
   -5.1487   -4.3741    0.0000 C   0  0  0
    3.7818   -5.1183    0.0000 N   0  0  0
    2.4908   -7.3509    0.0000 C   0  0  0
   -5.9081   -3.0679    0.0000 C   0  0  0
   -5.9081   -5.6499    0.0000 C   0  0  0
    5.1183   -5.7106    0.0000 C   0  0  0
    3.9185   -3.6299    0.0000 C   0  0  0
   -7.4117   -3.0528    0.0000 C   0  0  0
   -7.4117   -5.6347    0.0000 C   0  0  0
    6.0903   -4.5867    0.0000 C   0  0  0
    5.3613   -3.3109    0.0000 C   0  0  0
   -8.1710   -4.3285    0.0000 C   0  0  0
   -8.5356   -1.1087    0.0000 C   0  0  0
    7.4268   -3.9640    0.0000 C   0  0  0
    7.2750   -5.4372    0.0000 C   0  0  0
   -7.0623   -1.0935    0.0000 C   0  0  2
   -9.9784   -0.7138    0.0000 C   0  0  0
   -8.1710    0.3341    0.0000 C   0  0  0
   -6.3333   -2.3693    0.0000 F   0  0  0
   -6.3333    0.2126    0.0000 C   0  0  0
   -9.6139    0.7290    0.0000 O   0  0  0
   -6.9560    1.5795    0.0000 N   0  0  0
   -4.8753    0.3797    0.0000 N   0  0  0
   -5.8625    2.5819    0.0000 N   0  0  0
   -4.5867    1.8529    0.0000 C   0  0  0
   -3.9033   -0.7138    0.0000 C   0  0  0
  1  2  1
  2  3  1
  2  4  1
  2  5  1
  5  6  2
  5  7  1
  6  8  1
  6  9  1
  7 10  2
  8 11  1
  8 12  2
  9 13  1
 14 10  1
 11 15  2
 13 16  1
 14 17  1  6  0
 14 18  1
 16 19  2
 16 20  1
 17 21  1
 17 22  1
 19 23  1
 20 24  2
 21 25  1
 22 26  1
 23 27  2
 23 28  1
 25 29  1
 25 30  1
 31 28  1
 28 32  1
 28 33  1
 31 34  1  1  0
 31 35  1
 32 36  1
 35 37  2
 35 38  1
 37 39  1
 38 40  1
 38 41  1
 10 12  1
 11 13  1
 24 27  1
 25 26  1
 29 30  1
 33 36  1
 39 40  2
M  END
> <COMPOUND_NAMES>
Example 575 (Stereo) (Page No: 701)

> <Reference>
WO2019148005

> <IC50_range_nM>
<100

> <smiles>
C[C@H](c1cc2C(N(Cc2c(c1)C(F)(F)F)c1cccc(c1)C1(COC1)[C@@H](c1nncn1C)F)=O)N1CCC2(CC2)C1

$$$$
C29H32FN5O2
  MOLSOFT 03092310482D

 37 43  0  0  1  0  0  0  0  0999 V2000
    0.0000   -0.0000    0.0000 F   0  0  0
   -1.3876    0.6232    0.0000 C   0  0  2
   -2.6929   -0.1176    0.0000 C   0  0  0
   -1.7169    2.1049    0.0000 C   0  0  0
   -3.8218    0.8937    0.0000 N   0  0  0
   -3.2220    2.2695    0.0000 C   0  0  0
   -5.3034    0.5880    0.0000 C   0  0  0
   -5.7738   -0.8231    0.0000 C   0  0  0
   -4.7860   -1.9285    0.0000 C   0  0  0
   -7.2555   -1.1289    0.0000 C   0  0  0
   -5.2564   -3.3396    0.0000 C   0  0  0
   -7.7258   -2.5400    0.0000 C   0  0  0
   -6.7381   -3.6454    0.0000 C   0  0  0
   -4.2686   -4.4450    0.0000 C   0  0  0
   -9.1134   -3.1397    0.0000 C   0  0  0
   -7.5024   -4.9389    0.0000 C   0  0  0
   -2.8575   -4.8918    0.0000 C   0  0  0
   -3.9629   -5.9031    0.0000 C   0  0  0
  -10.4305   -2.3754    0.0000 O   0  0  0
   -8.9723   -4.6214    0.0000 N   0  0  0
  -10.1012   -5.6092    0.0000 C   0  0  0
   -9.7955   -7.0673    0.0000 C   0  0  0
  -11.5358   -5.1388    0.0000 C   0  0  0
  -10.9243   -8.0551    0.0000 C   0  0  0
  -12.6647   -6.1266    0.0000 C   0  0  0
  -12.3590   -7.5847    0.0000 C   0  0  0
  -10.6186   -9.5132    0.0000 C   0  0  0
   -9.3721  -10.3246    0.0000 C   0  0  0
  -11.4535  -10.7597    0.0000 C   0  0  0
  -12.0532   -9.0429    0.0000 C   0  0  0
  -10.2070  -11.5711    0.0000 O   0  0  0
  -13.1821  -10.0306    0.0000 C   0  0  0
  -14.6638   -9.7014    0.0000 N   0  0  0
  -13.0410  -11.5123    0.0000 N   0  0  0
  -15.4281  -10.9949    0.0000 N   0  0  0
  -14.4286  -12.1120    0.0000 C   0  0  0
  -11.7475  -12.2531    0.0000 C   0  0  0
  2  1  1  6  0
  2  3  1
  2  4  1
  3  5  1
  4  6  1
  5  7  1
  7  8  1
  8  9  2
  8 10  1
  9 11  1
 10 12  2
 11 13  2
 11 14  1
 12 15  1
 13 16  1
 14 17  1
 14 18  1
 15 19  2
 15 20  1
 20 21  1
 21 22  2
 21 23  1
 22 24  1
 23 25  2
 24 26  2
 24 27  1
 27 28  1
 27 29  1
 27 30  1
 28 31  1
 30 32  1
 32 33  2
 32 34  1
 33 35  1
 34 36  1
 34 37  1
  5  6  1
 12 13  1
 16 20  1
 17 18  1
 25 26  1
 29 31  1
 35 36  2
M  END
> <COMPOUND_NAMES>
Example 554 (S) (Page No: 689)

> <Reference>
WO2019148005

> <IC50_range_nM>
<100

> <smiles>
Cn1cnnc1CC1(COC1)c1cccc(c1)N1Cc2c(cc(CN3CC[C@@H](C3)F)cc2C1=O)C1CC1

$$$$
C30H34FN5O2
  MOLSOFT 03092310482D

 38 44  0  0  0  0  0  0  0  0999 V2000
    0.0000   -0.0000    0.0000 F   0  0  0
   -1.4822   -0.3059    0.0000 C   0  0  0
   -2.4939    0.8235    0.0000 C   0  0  0
   -1.9528   -1.7175    0.0000 C   0  0  0
   -3.9762    0.5176    0.0000 C   0  0  0
   -3.4350   -2.0234    0.0000 C   0  0  0
   -4.4467   -0.8941    0.0000 N   0  0  0
   -5.9290   -1.1999    0.0000 C   0  0  0
   -6.3995   -2.6116    0.0000 C   0  0  0
   -5.4114   -3.7174    0.0000 C   0  0  0
   -7.8818   -2.9174    0.0000 C   0  0  0
   -5.8819   -5.1290    0.0000 C   0  0  0
   -8.3523   -4.3291    0.0000 C   0  0  0
   -7.3642   -5.4349    0.0000 C   0  0  0
   -4.8938   -6.2348    0.0000 C   0  0  0
   -9.7404   -4.9290    0.0000 C   0  0  0
   -8.1288   -6.7289    0.0000 C   0  0  0
   -3.4821   -6.6819    0.0000 C   0  0  0
   -4.5879   -7.6935    0.0000 C   0  0  0
  -11.0580   -4.1644    0.0000 O   0  0  0
   -9.5993   -6.4113    0.0000 N   0  0  0
  -10.7286   -7.3994    0.0000 C   0  0  0
  -10.4228   -8.8582    0.0000 C   0  0  0
  -12.1638   -6.9289    0.0000 C   0  0  0
  -11.5521   -9.8463    0.0000 C   0  0  0
  -13.2931   -7.9171    0.0000 C   0  0  0
  -12.9873   -9.3758    0.0000 C   0  0  0
  -11.2462  -11.3050    0.0000 C   0  0  0
   -9.9993  -12.1167    0.0000 C   0  0  0
  -12.0814  -12.5520    0.0000 C   0  0  0
  -12.6814  -10.8345    0.0000 C   0  0  0
  -10.8345  -13.3637    0.0000 O   0  0  0
  -13.8107  -11.8226    0.0000 C   0  0  0
  -15.2930  -11.4933    0.0000 N   0  0  0
  -13.6696  -13.3049    0.0000 N   0  0  0
  -16.0576  -12.7873    0.0000 N   0  0  0
  -15.0577  -13.9048    0.0000 C   0  0  0
  -12.3755  -14.0460    0.0000 C   0  0  0
  1  2  1
  2  3  1
  2  4  1
  3  5  1
  4  6  1
  5  7  1
  7  8  1
  8  9  1
  9 10  2
  9 11  1
 10 12  1
 11 13  2
 12 14  2
 12 15  1
 13 16  1
 14 17  1
 15 18  1
 15 19  1
 16 20  2
 16 21  1
 21 22  1
 22 23  2
 22 24  1
 23 25  1
 24 26  2
 25 27  2
 25 28  1
 28 29  1
 28 30  1
 28 31  1
 29 32  1
 31 33  1
 33 34  2
 33 35  1
 34 36  1
 35 37  1
 35 38  1
  6  7  1
 13 14  1
 17 21  1
 18 19  1
 26 27  1
 30 32  1
 36 37  2
M  END
> <COMPOUND_NAMES>
Example 552 (Page No: 686)

> <Reference>
WO2019148005

> <IC50_range_nM>
<100

> <smiles>
Cn1cnnc1CC1(COC1)c1cccc(c1)N1Cc2c(cc(CN3CCC(CC3)F)cc2C1=O)C1CC1

$$$$
C29H30F3N5O3
  MOLSOFT 03092310482D

 40 46  0  0  0  0  0  0  0  0999 V2000
    0.0000   -0.0000    0.0000 F   0  0  0
    1.1049    1.0109    0.0000 C   0  0  0
    2.0923   -0.0940    0.0000 F   0  0  0
    2.2098    2.0218    0.0000 F   0  0  0
    0.0940    2.1393    0.0000 C   0  0  0
   -1.3870    1.8337    0.0000 C   0  0  0
    0.5407    3.5734    0.0000 C   0  0  0
   -2.3979    2.9621    0.0000 C   0  0  0
   -2.1511    0.5407    0.0000 C   0  0  0
   -0.4702    4.7018    0.0000 C   0  0  0
   -3.7849    2.3627    0.0000 C   0  0  0
   -1.9512    4.3962    0.0000 C   0  0  0
   -3.6321    0.8698    0.0000 N   0  0  0
   -0.0235    6.1358    0.0000 C   0  0  0
   -5.1015    3.1267    0.0000 O   0  0  0
   -4.7606   -0.1175    0.0000 C   0  0  0
    1.4340    6.4650    0.0000 N   0  0  0
   -4.4550   -1.5751    0.0000 C   0  0  0
   -6.1946    0.3526    0.0000 C   0  0  0
    2.5390    5.4776    0.0000 C   0  0  0
    2.0335    7.8520    0.0000 C   0  0  0
   -5.5834   -2.5625    0.0000 C   0  0  0
   -7.3231   -0.6347    0.0000 C   0  0  0
    3.8202    6.2416    0.0000 C   0  0  0
    3.4676    4.3257    0.0000 C   0  0  0
    1.3635    4.5490    0.0000 C   0  0  0
    3.5146    7.7110    0.0000 C   0  0  0
   -7.0174   -2.0923    0.0000 C   0  0  0
   -5.2778   -4.0200    0.0000 C   0  0  0
    2.2921    3.3970    0.0000 O   0  0  0
   -4.0318   -4.8311    0.0000 C   0  0  0
   -6.1123   -5.2660    0.0000 C   0  0  0
   -6.7118   -3.5499    0.0000 C   0  0  0
   -4.8664   -6.0771    0.0000 O   0  0  0
   -7.8403   -4.5372    0.0000 C   0  0  0
   -9.3213   -4.2081    0.0000 N   0  0  0
   -7.6992   -6.0183    0.0000 N   0  0  0
  -10.0854   -5.5011    0.0000 N   0  0  0
   -9.0862   -6.6178    0.0000 C   0  0  0
   -6.4062   -6.7588    0.0000 C   0  0  0
  1  2  1
  2  3  1
  2  4  1
  2  5  1
  5  6  2
  5  7  1
  6  8  1
  6  9  1
  7 10  2
  8 11  1
  8 12  2
  9 13  1
 10 14  1
 11 15  2
 13 16  1
 14 17  1
 16 18  2
 16 19  1
 17 20  1
 17 21  1
 18 22  1
 19 23  2
 20 24  1
 20 25  1
 20 26  1
 21 27  1
 22 28  2
 22 29  1
 25 30  1
 29 31  1
 29 32  1
 29 33  1
 31 34  1
 33 35  1
 35 36  2
 35 37  1
 36 38  1
 37 39  1
 37 40  1
 10 12  1
 11 13  1
 23 28  1
 24 27  1
 26 30  1
 32 34  1
 38 39  2
M  END
> <COMPOUND_NAMES>
Example 433 (Page No: 589)

> <Reference>
WO2019148005

> <IC50_range_nM>
<100

> <smiles>
Cn1cnnc1CC1(COC1)c1cccc(c1)N1Cc2c(cc(CN3CCCC34COC4)cc2C(F)(F)F)C1=O

$$$$
C29H30F3N5O3
  MOLSOFT 03092310482D

 40 46  0  0  0  0  0  0  0  0999 V2000
    0.0000   -0.0000    0.0000 F   0  0  0
    1.1035    1.0096    0.0000 C   0  0  0
    2.1013   -0.0939    0.0000 F   0  0  0
    2.2069    2.0308    0.0000 F   0  0  0
    0.0822    2.1365    0.0000 C   0  0  0
   -1.3969    1.8313    0.0000 C   0  0  0
    0.5283    3.5687    0.0000 C   0  0  0
   -2.4182    2.9582    0.0000 C   0  0  0
   -2.1600    0.5400    0.0000 C   0  0  0
   -0.4930    4.6956    0.0000 C   0  0  0
   -3.8034    2.3595    0.0000 C   0  0  0
   -1.9722    4.3904    0.0000 C   0  0  0
   -3.6391    0.8687    0.0000 N   0  0  0
   -0.0470    6.1278    0.0000 C   0  0  0
   -5.1182    3.1226    0.0000 O   0  0  0
   -4.7660   -0.1291    0.0000 C   0  0  0
    1.4087    6.4565    0.0000 N   0  0  0
   -4.4608   -1.5848    0.0000 C   0  0  0
   -6.1982    0.3404    0.0000 C   0  0  0
    2.4065    5.3530    0.0000 C   0  0  0
    1.8548    7.8886    0.0000 C   0  0  0
   -5.5878   -2.5708    0.0000 C   0  0  0
   -7.3251   -0.6574    0.0000 C   0  0  0
    3.8621    5.6817    0.0000 C   0  0  0
    3.3104    8.2173    0.0000 C   0  0  0
   -7.0317   -2.1013    0.0000 C   0  0  0
   -5.2826   -4.0265    0.0000 C   0  0  0
    4.3082    7.1138    0.0000 O   0  0  0
    5.2826    5.2356    0.0000 C   0  0  0
    4.1673    4.2260    0.0000 C   0  0  0
   -4.0382   -4.8365    0.0000 C   0  0  0
   -6.1160   -5.2708    0.0000 C   0  0  0
   -6.7147   -3.5569    0.0000 C   0  0  0
   -4.8717   -6.0808    0.0000 O   0  0  0
   -7.8417   -4.5547    0.0000 C   0  0  0
   -9.3208   -4.2260    0.0000 N   0  0  0
   -7.7008   -6.0338    0.0000 N   0  0  0
  -10.0838   -5.5173    0.0000 N   0  0  0
   -9.0860   -6.6325    0.0000 C   0  0  0
   -6.4095   -6.7734    0.0000 C   0  0  0
  1  2  1
  2  3  1
  2  4  1
  2  5  1
  5  6  2
  5  7  1
  6  8  1
  6  9  1
  7 10  2
  8 11  1
  8 12  2
  9 13  1
 10 14  1
 11 15  2
 13 16  1
 14 17  1
 16 18  2
 16 19  1
 17 20  1
 17 21  1
 18 22  1
 19 23  2
 20 24  1
 21 25  1
 22 26  2
 22 27  1
 24 28  1
 24 29  1
 24 30  1
 27 31  1
 27 32  1
 27 33  1
 31 34  1
 33 35  1
 35 36  2
 35 37  1
 36 38  1
 37 39  1
 37 40  1
 10 12  1
 11 13  1
 23 26  1
 25 28  1
 29 30  1
 32 34  1
 38 39  2
M  END
> <COMPOUND_NAMES>
Example 666 (Page No: 749)

> <Reference>
WO2019148005

> <IC50_range_nM>
<100

> <smiles>
Cn1cnnc1CC1(COC1)c1cccc(c1)N1Cc2c(cc(CN3CCOC4(CC4)C3)cc2C(F)(F)F)C1=O

$$$$
C30H32F3N5O3
  MOLSOFT 03092310482D

 41 47  0  0  0  0  0  0  0  0999 V2000
    0.0000   -0.0000    0.0000 F   0  0  0
    1.1098    1.0154    0.0000 C   0  0  0
    2.1016   -0.0826    0.0000 F   0  0  0
    2.2197    2.0308    0.0000 F   0  0  0
    0.0945    2.1489    0.0000 C   0  0  0
   -1.3814    1.8537    0.0000 C   0  0  0
    0.5431    3.5893    0.0000 C   0  0  0
   -2.3968    2.9871    0.0000 C   0  0  0
   -2.1489    0.5667    0.0000 C   0  0  0
   -0.4723    4.7228    0.0000 C   0  0  0
   -3.7782    2.3850    0.0000 C   0  0  0
   -1.9481    4.4276    0.0000 C   0  0  0
   -3.6247    0.8855    0.0000 N   0  0  0
   -0.0236    6.1632    0.0000 C   0  0  0
   -5.0888    3.1524    0.0000 O   0  0  0
   -4.7582   -0.1063    0.0000 C   0  0  0
    1.4286    6.4820    0.0000 N   0  0  0
   -4.4630   -1.5585    0.0000 C   0  0  0
   -6.1986    0.3660    0.0000 C   0  0  0
    2.4204    5.3721    0.0000 C   0  0  0
    1.8773    7.9224    0.0000 C   0  0  0
   -5.5847   -2.5503    0.0000 C   0  0  0
   -7.3203   -0.6258    0.0000 C   0  0  0
    3.8727    5.6909    0.0000 C   0  0  0
    3.3295    8.2412    0.0000 C   0  0  0
   -7.0251   -2.0780    0.0000 C   0  0  0
   -5.2895   -4.0025    0.0000 C   0  0  0
    4.3213    7.1314    0.0000 O   0  0  0
    5.3603    5.6201    0.0000 C   0  0  0
    3.7782    4.2033    0.0000 C   0  0  0
   -4.0380   -4.8054    0.0000 C   0  0  0
   -6.1160   -5.2541    0.0000 C   0  0  0
   -6.7299   -3.5303    0.0000 C   0  0  0
    5.2659    4.1324    0.0000 C   0  0  0
   -4.8644   -6.0569    0.0000 O   0  0  0
   -7.8634   -4.5220    0.0000 C   0  0  0
   -9.3393   -4.2033    0.0000 N   0  0  0
   -7.7217   -5.9979    0.0000 N   0  0  0
  -10.1067   -5.4902    0.0000 N   0  0  0
   -9.1031   -6.6001    0.0000 C   0  0  0
   -6.4348   -6.7417    0.0000 C   0  0  0
  1  2  1
  2  3  1
  2  4  1
  2  5  1
  5  6  2
  5  7  1
  6  8  1
  6  9  1
  7 10  2
  8 11  1
  8 12  2
  9 13  1
 10 14  1
 11 15  2
 13 16  1
 14 17  1
 16 18  2
 16 19  1
 17 20  1
 17 21  1
 18 22  1
 19 23  2
 20 24  1
 21 25  1
 22 26  2
 22 27  1
 24 28  1
 24 29  1
 24 30  1
 27 31  1
 27 32  1
 27 33  1
 29 34  1
 31 35  1
 33 36  1
 36 37  2
 36 38  1
 37 39  1
 38 40  1
 38 41  1
 10 12  1
 11 13  1
 23 26  1
 25 28  1
 30 34  1
 32 35  1
 39 40  2
M  END
> <COMPOUND_NAMES>
Example 703 (Page No: 781)

> <Reference>
WO2019148005

> <IC50_range_nM>
<100

> <smiles>
Cn1cnnc1CC1(COC1)c1cccc(c1)N1Cc2c(cc(CN3CCOC4(CCC4)C3)cc2C(F)(F)F)C1=O

$$$$
C30H32F3N5O4
  MOLSOFT 03092310482D

 42 48  0  0  0  0  0  0  0  0999 V2000
    0.0000   -0.0000    0.0000 F   0  0  0
    1.1051    1.0110    0.0000 C   0  0  0
    2.0926   -0.0940    0.0000 F   0  0  0
    2.2101    2.0221    0.0000 F   0  0  0
    0.0940    2.1396    0.0000 C   0  0  0
   -1.3872    1.8340    0.0000 C   0  0  0
    0.5408    3.5739    0.0000 C   0  0  0
   -2.3982    2.9625    0.0000 C   0  0  0
   -2.1514    0.5408    0.0000 C   0  0  0
   -0.4702    4.7024    0.0000 C   0  0  0
   -3.7855    2.3630    0.0000 C   0  0  0
   -1.9515    4.3968    0.0000 C   0  0  0
   -3.6326    0.8700    0.0000 N   0  0  0
   -0.0235    6.1367    0.0000 C   0  0  0
   -5.1022    3.1271    0.0000 O   0  0  0
   -4.7612   -0.1176    0.0000 C   0  0  0
    1.4342    6.4659    0.0000 N   0  0  0
   -4.4556   -1.5753    0.0000 C   0  0  0
   -6.1955    0.3527    0.0000 C   0  0  0
    2.4218    5.3608    0.0000 C   0  0  0
    1.8810    7.9001    0.0000 C   0  0  0
   -5.5842   -2.5628    0.0000 C   0  0  0
   -7.3241   -0.6348    0.0000 C   0  0  0
    3.8795    5.6900    0.0000 C   0  0  3
    3.3387    8.2293    0.0000 C   0  0  0
   -7.0184   -2.0926    0.0000 C   0  0  0
   -5.2785   -4.0206    0.0000 C   0  0  0
    4.3262    7.1242    0.0000 O   0  0  0
    3.5503    4.2322    0.0000 C   0  0  0
    5.3608    5.8545    0.0000 C   0  0  0
   -4.0323   -4.8318    0.0000 C   0  0  0
   -6.1132   -5.2667    0.0000 C   0  0  0
   -6.7127   -3.5503    0.0000 C   0  0  0
    4.8435    3.4916    0.0000 O   0  0  0
    5.9603    4.4908    0.0000 C   0  0  0
   -4.8670   -6.0779    0.0000 O   0  0  0
   -7.8413   -4.5379    0.0000 C   0  0  0
   -9.3226   -4.2087    0.0000 N   0  0  0
   -7.7002   -6.0191    0.0000 N   0  0  0
  -10.0867   -5.5019    0.0000 N   0  0  0
   -9.0875   -6.6187    0.0000 C   0  0  0
   -6.4071   -6.7598    0.0000 C   0  0  0
  1  2  1
  2  3  1
  2  4  1
  2  5  1
  5  6  2
  5  7  1
  6  8  1
  6  9  1
  7 10  2
  8 11  1
  8 12  2
  9 13  1
 10 14  1
 11 15  2
 13 16  1
 14 17  1
 16 18  2
 16 19  1
 17 20  1
 17 21  1
 18 22  1
 19 23  2
 24 20  1
 21 25  1
 22 26  2
 22 27  1
 24 28  1
 24 29  1
 24 30  1
 27 31  1
 27 32  1
 27 33  1
 29 34  1
 30 35  1
 31 36  1
 33 37  1
 37 38  2
 37 39  1
 38 40  1
 39 41  1
 39 42  1
 10 12  1
 11 13  1
 23 26  1
 25 28  1
 32 36  1
 34 35  1
 40 41  2
M  END
> <COMPOUND_NAMES>
Example 712 (+/-) (Page No: 786)

> <Reference>
WO2019148005

> <IC50_range_nM>
<100

> <smiles>
Cn1cnnc1CC1(COC1)c1cccc(c1)N1Cc2c(cc(CN3CCOC4(CCOC4)C3)cc2C(F)(F)F)C1=O

$$$$
C29H31F4N5O3
  MOLSOFT 03092310482D

 41 46  0  0  1  0  0  0  0  0999 V2000
    0.0000   -0.0000    0.0000 F   0  0  0
    1.1036    1.0097    0.0000 C   0  0  0
    2.0898   -0.0939    0.0000 F   0  0  0
    2.2072    2.0194    0.0000 F   0  0  0
    0.0939    2.1368    0.0000 C   0  0  0
   -1.3854    1.8315    0.0000 C   0  0  0
    0.5401    3.5691    0.0000 C   0  0  0
   -2.3951    2.9586    0.0000 C   0  0  0
   -2.1485    0.5401    0.0000 C   0  0  0
   -0.4696    4.6962    0.0000 C   0  0  0
   -3.7804    2.3598    0.0000 C   0  0  0
   -1.9489    4.3909    0.0000 C   0  0  0
   -3.6278    0.8688    0.0000 N   0  0  0
   -0.0235    6.1285    0.0000 C   0  0  0
   -5.0954    3.1230    0.0000 O   0  0  0
   -4.7549   -0.1174    0.0000 C   0  0  0
    1.4323    6.4573    0.0000 N   0  0  0
   -6.1872    0.3522    0.0000 C   0  0  0
   -4.4496   -1.5732    0.0000 C   0  0  0
    2.5359    5.4711    0.0000 C   0  0  0
    2.0311    7.8426    0.0000 C   0  0  0
   -7.3143   -0.6340    0.0000 C   0  0  0
   -5.5767   -2.5594    0.0000 C   0  0  0
    3.8157    6.2342    0.0000 C   0  0  2
    3.5104    7.7017    0.0000 C   0  0  0
   -8.7466   -0.1644    0.0000 O   0  0  0
   -7.0091   -2.0898    0.0000 C   0  0  0
   -5.2715   -4.0152    0.0000 C   0  0  0
    5.1775    5.6354    0.0000 F   0  0  0
   -9.8737   -1.1506    0.0000 C   0  0  0
   -4.0270   -4.8253    0.0000 C   0  0  0
   -6.1050   -5.2597    0.0000 C   0  0  0
   -6.7038   -3.5456    0.0000 C   0  0  0
  -11.3061   -0.6809    0.0000 C   0  0  0
   -4.8606   -6.0698    0.0000 O   0  0  0
   -7.8309   -4.5318    0.0000 C   0  0  0
   -7.6900   -6.0111    0.0000 N   0  0  0
   -9.3102   -4.2031    0.0000 N   0  0  0
   -9.0754   -6.6099    0.0000 N   0  0  0
  -10.0733   -5.4945    0.0000 C   0  0  0
   -9.9324   -2.8177    0.0000 C   0  0  0
  1  2  1
  2  3  1
  2  4  1
  2  5  1
  5  6  2
  5  7  1
  6  8  1
  6  9  1
  7 10  2
  8 11  1
  8 12  2
  9 13  1
 10 14  1
 11 15  2
 13 16  1
 14 17  1
 16 18  2
 16 19  1
 17 20  1
 17 21  1
 18 22  1
 19 23  2
 24 20  1
 21 25  1
 22 26  1
 22 27  2
 23 28  1
 24 29  1  6  0
 26 30  1
 28 31  1
 28 32  1
 28 33  1
 30 34  1
 31 35  1
 33 36  1
 36 37  2
 36 38  1
 37 39  1
 38 40  1
 38 41  1
 10 12  1
 11 13  1
 23 27  1
 24 25  1
 32 35  1
 39 40  2
M  END
> <COMPOUND_NAMES>
Example 468 (S) (Page No: 613)

> <Reference>
WO2019148005

> <IC50_range_nM>
<100

> <smiles>
CCOc1cc(cc(c1)N1Cc2c(cc(CN3CC[C@@H](C3)F)cc2C(F)(F)F)C1=O)C1(Cc2nncn2C)COC1

$$$$
C30H33F4N5O3
  MOLSOFT 03092310482D

 42 47  0  0  1  0  0  0  0  0999 V2000
    0.0000   -0.0000    0.0000 F   0  0  0
    1.1034    1.0095    0.0000 C   0  0  0
    2.0894   -0.0939    0.0000 F   0  0  0
    2.2068    2.0190    0.0000 F   0  0  0
    0.0939    2.1364    0.0000 C   0  0  0
   -1.3851    1.8312    0.0000 C   0  0  0
    0.5400    3.5684    0.0000 C   0  0  0
   -2.3946    2.9580    0.0000 C   0  0  0
   -2.1481    0.5400    0.0000 C   0  0  0
   -0.4695    4.6953    0.0000 C   0  0  0
   -3.7797    2.3594    0.0000 C   0  0  0
   -1.9486    4.3901    0.0000 C   0  0  0
   -3.6271    0.8686    0.0000 N   0  0  0
   -0.0235    6.1274    0.0000 C   0  0  1
   -5.0944    3.1224    0.0000 O   0  0  0
   -4.7540   -0.1174    0.0000 C   0  0  0
    1.4321    6.4560    0.0000 N   0  0  0
   -1.0330    7.2542    0.0000 C   0  0  0
   -6.1861    0.3521    0.0000 C   0  0  0
   -4.4488   -1.5729    0.0000 C   0  0  0
    2.5355    5.4700    0.0000 C   0  0  0
    2.0307    7.8412    0.0000 C   0  0  0
   -7.3129   -0.6339    0.0000 C   0  0  0
   -5.5757   -2.5589    0.0000 C   0  0  0
    3.8149    6.2330    0.0000 C   0  0  2
    3.5097    7.7003    0.0000 C   0  0  0
   -8.7450   -0.1643    0.0000 O   0  0  0
   -7.0077   -2.0894    0.0000 C   0  0  0
   -5.2705   -4.0145    0.0000 C   0  0  0
    5.1766    5.6344    0.0000 F   0  0  0
   -9.8719   -1.1504    0.0000 C   0  0  0
   -4.0262   -4.8244    0.0000 C   0  0  0
   -6.1039   -5.2587    0.0000 C   0  0  0
   -6.7026   -3.5450    0.0000 C   0  0  0
  -11.3040   -0.6808    0.0000 C   0  0  0
   -4.8596   -6.0687    0.0000 O   0  0  0
   -7.8294   -4.5310    0.0000 C   0  0  0
   -7.6886   -6.0100    0.0000 N   0  0  0
   -9.3084   -4.2023    0.0000 N   0  0  0
   -9.0737   -6.6086    0.0000 N   0  0  0
  -10.0714   -5.4935    0.0000 C   0  0  0
   -9.9306   -2.8172    0.0000 C   0  0  0
  1  2  1
  2  3  1
  2  4  1
  2  5  1
  5  6  2
  5  7  1
  6  8  1
  6  9  1
  7 10  2
  8 11  1
  8 12  2
  9 13  1
 14 10  1
 11 15  2
 13 16  1
 14 17  1  6  0
 14 18  1
 16 19  2
 16 20  1
 17 21  1
 17 22  1
 19 23  1
 20 24  2
 25 21  1
 22 26  1
 23 27  1
 23 28  2
 24 29  1
 25 30  1  6  0
 27 31  1
 29 32  1
 29 33  1
 29 34  1
 31 35  1
 32 36  1
 34 37  1
 37 38  2
 37 39  1
 38 40  1
 39 41  1
 39 42  1
 10 12  1
 11 13  1
 24 28  1
 25 26  1
 33 36  1
 40 41  2
M  END
> <COMPOUND_NAMES>
Example 691b (Stereo) (Page No: 768)

> <Reference>
WO2019148005

> <IC50_range_nM>
<100

> <smiles>
CCOc1cc(cc(c1)N1Cc2c(cc(cc2C(F)(F)F)[C@H](C)N2CC[C@@H](C2)F)C1=O)C1(Cc2nncn2C)COC1

$$$$
C30H33F4N5O3
  MOLSOFT 03092310482D

 42 47  0  0  1  0  0  0  0  0999 V2000
    0.0000   -0.0000    0.0000 F   0  0  0
    1.1034    1.0095    0.0000 C   0  0  0
    2.0894   -0.0939    0.0000 F   0  0  0
    2.2068    2.0190    0.0000 F   0  0  0
    0.0939    2.1364    0.0000 C   0  0  0
   -1.3851    1.8312    0.0000 C   0  0  0
    0.5400    3.5684    0.0000 C   0  0  0
   -2.3946    2.9580    0.0000 C   0  0  0
   -2.1481    0.5400    0.0000 C   0  0  0
   -0.4695    4.6953    0.0000 C   0  0  0
   -3.7797    2.3594    0.0000 C   0  0  0
   -1.9486    4.3901    0.0000 C   0  0  0
   -3.6271    0.8686    0.0000 N   0  0  0
   -0.0235    6.1274    0.0000 C   0  0  2
   -5.0944    3.1224    0.0000 O   0  0  0
   -4.7540   -0.1174    0.0000 C   0  0  0
    1.4321    6.4560    0.0000 N   0  0  0
   -1.0330    7.2542    0.0000 C   0  0  0
   -6.1861    0.3521    0.0000 C   0  0  0
   -4.4488   -1.5729    0.0000 C   0  0  0
    2.5355    5.4700    0.0000 C   0  0  0
    2.0307    7.8412    0.0000 C   0  0  0
   -7.3129   -0.6339    0.0000 C   0  0  0
   -5.5757   -2.5589    0.0000 C   0  0  0
    3.8149    6.2330    0.0000 C   0  0  2
    3.5097    7.7003    0.0000 C   0  0  0
   -8.7450   -0.1643    0.0000 O   0  0  0
   -7.0077   -2.0894    0.0000 C   0  0  0
   -5.2705   -4.0145    0.0000 C   0  0  0
    5.1766    5.6344    0.0000 F   0  0  0
   -9.8719   -1.1504    0.0000 C   0  0  0
   -4.0262   -4.8244    0.0000 C   0  0  0
   -6.1039   -5.2587    0.0000 C   0  0  0
   -6.7026   -3.5450    0.0000 C   0  0  0
  -11.3040   -0.6808    0.0000 C   0  0  0
   -4.8596   -6.0687    0.0000 O   0  0  0
   -7.8294   -4.5310    0.0000 C   0  0  0
   -7.6886   -6.0100    0.0000 N   0  0  0
   -9.3084   -4.2023    0.0000 N   0  0  0
   -9.0737   -6.6086    0.0000 N   0  0  0
  -10.0714   -5.4935    0.0000 C   0  0  0
   -9.9306   -2.8172    0.0000 C   0  0  0
  1  2  1
  2  3  1
  2  4  1
  2  5  1
  5  6  2
  5  7  1
  6  8  1
  6  9  1
  7 10  2
  8 11  1
  8 12  2
  9 13  1
 14 10  1
 11 15  2
 13 16  1
 14 17  1  1  0
 14 18  1
 16 19  2
 16 20  1
 17 21  1
 17 22  1
 19 23  1
 20 24  2
 25 21  1
 22 26  1
 23 27  1
 23 28  2
 24 29  1
 25 30  1  6  0
 27 31  1
 29 32  1
 29 33  1
 29 34  1
 31 35  1
 32 36  1
 34 37  1
 37 38  2
 37 39  1
 38 40  1
 39 41  1
 39 42  1
 10 12  1
 11 13  1
 24 28  1
 25 26  1
 33 36  1
 40 41  2
M  END
> <COMPOUND_NAMES>
Example 691a (Stereo) (Page No: 768)

> <Reference>
WO2019148005

> <IC50_range_nM>
<100

> <smiles>
CCOc1cc(cc(c1)N1Cc2c(cc(cc2C(F)(F)F)[C@@H](C)N2CC[C@@H](C2)F)C1=O)C1(Cc2nncn2C)COC1

$$$$
C30H32F3N5O3
  MOLSOFT 03092310482D

 41 47  0  0  1  0  0  0  0  0999 V2000
    0.0000   -0.0000    0.0000 F   0  0  0
    1.1033    1.0094    0.0000 C   0  0  0
    2.1009   -0.0939    0.0000 F   0  0  0
    2.2065    2.0305    0.0000 F   0  0  0
    0.0822    2.1361    0.0000 C   0  0  0
   -1.3967    1.8310    0.0000 C   0  0  0
    0.5282    3.5680    0.0000 C   0  0  0
   -2.4178    2.9577    0.0000 C   0  0  0
   -2.1596    0.5399    0.0000 C   0  0  0
   -0.4930    4.6948    0.0000 C   0  0  0
   -3.8028    2.3591    0.0000 C   0  0  0
   -1.9718    4.3896    0.0000 C   0  0  0
   -3.6385    0.8685    0.0000 N   0  0  0
   -0.0469    6.1267    0.0000 C   0  0  0
   -5.1173    3.1220    0.0000 O   0  0  0
   -4.7652   -0.1291    0.0000 C   0  0  0
    1.4084    6.4553    0.0000 N   0  0  0
   -4.4600   -1.5845    0.0000 C   0  0  0
   -6.1971    0.3404    0.0000 C   0  0  0
    1.8544    7.8872    0.0000 C   0  0  0
    2.4061    5.3520    0.0000 C   0  0  0
   -5.5868   -2.5704    0.0000 C   0  0  0
   -7.3239   -0.6573    0.0000 C   0  0  0
    3.3098    8.2159    0.0000 C   0  0  2
    3.8615    5.6807    0.0000 C   0  0  0
   -7.0304   -2.1009    0.0000 C   0  0  0
   -5.2816   -4.0258    0.0000 C   0  0  0
    4.3075    7.1126    0.0000 C   0  0  2
    4.0492    9.5304    0.0000 C   0  0  0
   -4.0375   -4.8356    0.0000 C   0  0  0
   -6.1149   -5.2699    0.0000 C   0  0  0
   -6.7135   -3.5563    0.0000 C   0  0  0
    5.6689    7.7346    0.0000 O   0  0  0
    5.5046    9.2252    0.0000 C   0  0  0
   -4.8708   -6.0797    0.0000 O   0  0  0
   -7.8403   -4.5539    0.0000 C   0  0  0
   -9.3191   -4.2253    0.0000 N   0  0  0
   -7.6994   -6.0328    0.0000 N   0  0  0
  -10.0820   -5.5164    0.0000 N   0  0  0
   -9.0844   -6.6314    0.0000 C   0  0  0
   -6.4084   -6.7722    0.0000 C   0  0  0
  1  2  1
  2  3  1
  2  4  1
  2  5  1
  5  6  2
  5  7  1
  6  8  1
  6  9  1
  7 10  2
  8 11  1
  8 12  2
  9 13  1
 10 14  1
 11 15  2
 13 16  1
 14 17  1
 16 18  2
 16 19  1
 17 20  1
 17 21  1
 18 22  1
 19 23  2
 24 20  1  1  0
 21 25  1
 22 26  2
 22 27  1
 24 28  1
 24 29  1
 27 30  1
 27 31  1
 27 32  1
 28 33  1  1  0
 29 34  1
 30 35  1
 32 36  1
 36 37  2
 36 38  1
 37 39  1
 38 40  1
 38 41  1
 10 12  1
 11 13  1
 23 26  1
 28 25  1
 31 35  1
 33 34  1
 39 40  2
M  END
> <COMPOUND_NAMES>
Example 708 (Stereo) (Page No: 784)

> <Reference>
WO2019148005

> <IC50_range_nM>
<100

> <smiles>
Cn1cnnc1CC1(COC1)c1cccc(c1)N1Cc2c(cc(CN3CC[C@H]4[C@H](CCO4)C3)cc2C(F)(F)F)C1=O

$$$$
C31H29F3N6O2
  MOLSOFT 03092310482D

 42 48  0  0  0  0  0  0  0  0999 V2000
    0.0000   -0.0000    0.0000 F   0  0  0
    1.1032    1.0094    0.0000 C   0  0  0
    2.1009   -0.0939    0.0000 F   0  0  0
    2.2065    2.0304    0.0000 F   0  0  0
    0.0822    2.1361    0.0000 C   0  0  0
   -1.3967    1.8309    0.0000 C   0  0  0
    0.5282    3.5679    0.0000 C   0  0  0
   -2.4178    2.9576    0.0000 C   0  0  0
   -2.1595    0.5399    0.0000 C   0  0  0
   -0.4929    4.6947    0.0000 C   0  0  0
   -3.8027    2.3591    0.0000 C   0  0  0
   -1.9718    4.3895    0.0000 C   0  0  0
   -3.6384    0.8685    0.0000 N   0  0  0
   -0.0469    6.1265    0.0000 C   0  0  0
   -5.1172    3.1220    0.0000 O   0  0  0
   -4.7651   -0.1291    0.0000 C   0  0  0
    1.4084    6.4552    0.0000 N   0  0  0
   -4.4599   -1.5845    0.0000 C   0  0  0
   -6.1970    0.3404    0.0000 C   0  0  0
    1.8544    7.8988    0.0000 C   0  0  0
    2.4060    5.3519    0.0000 C   0  0  0
   -5.5867   -2.5703    0.0000 C   0  0  0
   -7.3237   -0.6573    0.0000 C   0  0  0
    3.3097    8.2274    0.0000 C   0  0  0
    3.8614    5.6805    0.0000 C   0  0  0
   -7.0303   -2.1009    0.0000 C   0  0  0
   -5.2815   -4.0257    0.0000 C   0  0  0
    4.3074    7.1242    0.0000 C   0  0  0
    3.7557    9.6593    0.0000 C   0  0  0
   -4.0374   -4.8355    0.0000 C   0  0  0
   -6.1148   -5.2698    0.0000 C   0  0  0
   -6.7134   -3.5562    0.0000 C   0  0  0
    5.7627    7.4528    0.0000 C   0  0  0
    5.2111    9.9879    0.0000 C   0  0  0
   -4.8707   -6.0796    0.0000 O   0  0  0
   -7.8401   -4.5538    0.0000 C   0  0  0
    6.2087    8.8847    0.0000 N   0  0  0
   -9.3189   -4.2252    0.0000 N   0  0  0
   -7.6993   -6.0326    0.0000 N   0  0  0
  -10.0818   -5.5162    0.0000 N   0  0  0
   -9.0842   -6.6312    0.0000 C   0  0  0
   -6.4082   -6.7721    0.0000 C   0  0  0
  1  2  1
  2  3  1
  2  4  1
  2  5  1
  5  6  2
  5  7  1
  6  8  1
  6  9  1
  7 10  2
  8 11  1
  8 12  2
  9 13  1
 10 14  1
 11 15  2
 13 16  1
 14 17  1
 16 18  2
 16 19  1
 17 20  1
 17 21  1
 18 22  1
 19 23  2
 20 24  1
 21 25  1
 22 26  2
 22 27  1
 24 28  2
 24 29  1
 27 30  1
 27 31  1
 27 32  1
 28 33  1
 29 34  2
 30 35  1
 32 36  1
 33 37  2
 36 38  2
 36 39  1
 38 40  1
 39 41  1
 39 42  1
 10 12  1
 11 13  1
 23 26  1
 25 28  1
 31 35  1
 34 37  1
 40 41  2
M  END
> <COMPOUND_NAMES>
Example 648 (Page No: 741)

> <Reference>
WO2019148005

> <IC50_range_nM>
<100

> <smiles>
Cn1cnnc1CC1(COC1)c1cccc(c1)N1Cc2c(cc(CN3CCc4cnccc4C3)cc2C(F)(F)F)C1=O

$$$$
C31H29F3N6O2
  MOLSOFT 03092310482D

 42 48  0  0  0  0  0  0  0  0999 V2000
    0.0000   -0.0000    0.0000 F   0  0  0
    1.1032    1.0094    0.0000 C   0  0  0
    2.1009   -0.0939    0.0000 F   0  0  0
    2.2065    2.0304    0.0000 F   0  0  0
    0.0822    2.1361    0.0000 C   0  0  0
   -1.3967    1.8309    0.0000 C   0  0  0
    0.5282    3.5679    0.0000 C   0  0  0
   -2.4178    2.9576    0.0000 C   0  0  0
   -2.1595    0.5399    0.0000 C   0  0  0
   -0.4929    4.6947    0.0000 C   0  0  0
   -3.8027    2.3591    0.0000 C   0  0  0
   -1.9718    4.3895    0.0000 C   0  0  0
   -3.6384    0.8685    0.0000 N   0  0  0
   -0.0469    6.1265    0.0000 C   0  0  0
   -5.1172    3.1220    0.0000 O   0  0  0
   -4.7651   -0.1291    0.0000 C   0  0  0
    1.4084    6.4552    0.0000 N   0  0  0
   -4.4599   -1.5845    0.0000 C   0  0  0
   -6.1970    0.3404    0.0000 C   0  0  0
    1.8544    7.8988    0.0000 C   0  0  0
    2.4060    5.3519    0.0000 C   0  0  0
   -5.5867   -2.5703    0.0000 C   0  0  0
   -7.3237   -0.6573    0.0000 C   0  0  0
    3.3097    8.2274    0.0000 C   0  0  0
    3.8614    5.6805    0.0000 C   0  0  0
   -7.0303   -2.1009    0.0000 C   0  0  0
   -5.2815   -4.0257    0.0000 C   0  0  0
    4.3074    7.1242    0.0000 C   0  0  0
    3.7557    9.6593    0.0000 C   0  0  0
   -4.0374   -4.8355    0.0000 C   0  0  0
   -6.1148   -5.2698    0.0000 C   0  0  0
   -6.7134   -3.5562    0.0000 C   0  0  0
    5.7627    7.4528    0.0000 C   0  0  0
    5.2111    9.9879    0.0000 N   0  0  0
   -4.8707   -6.0796    0.0000 O   0  0  0
   -7.8401   -4.5538    0.0000 C   0  0  0
    6.2087    8.8847    0.0000 C   0  0  0
   -9.3189   -4.2252    0.0000 N   0  0  0
   -7.6993   -6.0326    0.0000 N   0  0  0
  -10.0818   -5.5162    0.0000 N   0  0  0
   -9.0842   -6.6312    0.0000 C   0  0  0
   -6.4082   -6.7721    0.0000 C   0  0  0
  1  2  1
  2  3  1
  2  4  1
  2  5  1
  5  6  2
  5  7  1
  6  8  1
  6  9  1
  7 10  2
  8 11  1
  8 12  2
  9 13  1
 10 14  1
 11 15  2
 13 16  1
 14 17  1
 16 18  2
 16 19  1
 17 20  1
 17 21  1
 18 22  1
 19 23  2
 20 24  1
 21 25  1
 22 26  2
 22 27  1
 24 28  2
 24 29  1
 27 30  1
 27 31  1
 27 32  1
 28 33  1
 29 34  2
 30 35  1
 32 36  1
 33 37  2
 36 38  2
 36 39  1
 38 40  1
 39 41  1
 39 42  1
 10 12  1
 11 13  1
 23 26  1
 25 28  1
 31 35  1
 34 37  1
 40 41  2
M  END
> <COMPOUND_NAMES>
Example 638 (Page No: 736)

> <Reference>
WO2019148005

> <IC50_range_nM>
<100

> <smiles>
Cn1cnnc1CC1(COC1)c1cccc(c1)N1Cc2c(cc(CN3CCc4ccncc4C3)cc2C(F)(F)F)C1=O

$$$$
C32H30F3N5O2
  MOLSOFT 03092310482D

 42 48  0  0  0  0  0  0  0  0999 V2000
    0.0000   -0.0000    0.0000 F   0  0  0
    1.1032    1.0094    0.0000 C   0  0  0
    2.1009   -0.0939    0.0000 F   0  0  0
    2.2065    2.0304    0.0000 F   0  0  0
    0.0822    2.1361    0.0000 C   0  0  0
   -1.3967    1.8309    0.0000 C   0  0  0
    0.5282    3.5679    0.0000 C   0  0  0
   -2.4178    2.9576    0.0000 C   0  0  0
   -2.1595    0.5399    0.0000 C   0  0  0
   -0.4929    4.6947    0.0000 C   0  0  0
   -3.8027    2.3591    0.0000 C   0  0  0
   -1.9718    4.3895    0.0000 C   0  0  0
   -3.6384    0.8685    0.0000 N   0  0  0
   -0.0469    6.1265    0.0000 C   0  0  0
   -5.1172    3.1220    0.0000 O   0  0  0
   -4.7651   -0.1291    0.0000 C   0  0  0
    1.4084    6.4552    0.0000 N   0  0  0
   -4.4599   -1.5845    0.0000 C   0  0  0
   -6.1970    0.3404    0.0000 C   0  0  0
    1.8544    7.8988    0.0000 C   0  0  0
    2.4060    5.3519    0.0000 C   0  0  0
   -5.5867   -2.5703    0.0000 C   0  0  0
   -7.3237   -0.6573    0.0000 C   0  0  0
    3.3097    8.2274    0.0000 C   0  0  0
    3.8614    5.6805    0.0000 C   0  0  0
   -7.0303   -2.1009    0.0000 C   0  0  0
   -5.2815   -4.0257    0.0000 C   0  0  0
    4.3074    7.1242    0.0000 C   0  0  0
    3.7557    9.6593    0.0000 C   0  0  0
   -4.0374   -4.8355    0.0000 C   0  0  0
   -6.1148   -5.2698    0.0000 C   0  0  0
   -6.7134   -3.5562    0.0000 C   0  0  0
    5.7627    7.4528    0.0000 C   0  0  0
    5.2111    9.9879    0.0000 C   0  0  0
   -4.8707   -6.0796    0.0000 O   0  0  0
   -7.8401   -4.5538    0.0000 C   0  0  0
    6.2087    8.8847    0.0000 C   0  0  0
   -9.3189   -4.2252    0.0000 N   0  0  0
   -7.6993   -6.0326    0.0000 N   0  0  0
  -10.0818   -5.5162    0.0000 N   0  0  0
   -9.0842   -6.6312    0.0000 C   0  0  0
   -6.4082   -6.7721    0.0000 C   0  0  0
  1  2  1
  2  3  1
  2  4  1
  2  5  1
  5  6  2
  5  7  1
  6  8  1
  6  9  1
  7 10  2
  8 11  1
  8 12  2
  9 13  1
 10 14  1
 11 15  2
 13 16  1
 14 17  1
 16 18  2
 16 19  1
 17 20  1
 17 21  1
 18 22  1
 19 23  2
 20 24  1
 21 25  1
 22 26  2
 22 27  1
 24 28  2
 24 29  1
 27 30  1
 27 31  1
 27 32  1
 28 33  1
 29 34  2
 30 35  1
 32 36  1
 33 37  2
 36 38  2
 36 39  1
 38 40  1
 39 41  1
 39 42  1
 10 12  1
 11 13  1
 23 26  1
 25 28  1
 31 35  1
 34 37  1
 40 41  2
M  END
> <COMPOUND_NAMES>
Example 650 (Page No: 742)

> <Reference>
WO2019148005

> <IC50_range_nM>
<100

> <smiles>
Cn1cnnc1CC1(COC1)c1cccc(c1)N1Cc2c(cc(CN3CCc4ccccc4C3)cc2C(F)(F)F)C1=O

$$$$
C33H29F3N6O2
  MOLSOFT 03092310482D

 44 50  0  0  0  0  0  0  0  0999 V2000
    0.0000   -0.0000    0.0000 F   0  0  0
    1.1035    1.0096    0.0000 C   0  0  0
    2.1013   -0.0939    0.0000 F   0  0  0
    2.2070    2.0309    0.0000 F   0  0  0
    0.0822    2.1365    0.0000 C   0  0  0
   -1.3970    1.8313    0.0000 C   0  0  0
    0.5283    3.5687    0.0000 C   0  0  0
   -2.4183    2.9583    0.0000 C   0  0  0
   -2.1600    0.5400    0.0000 C   0  0  0
   -0.4930    4.6957    0.0000 C   0  0  0
   -3.8035    2.3596    0.0000 C   0  0  0
   -1.9722    4.3905    0.0000 C   0  0  0
   -3.6391    0.8687    0.0000 N   0  0  0
   -0.0470    6.1278    0.0000 C   0  0  0
   -5.1183    3.1226    0.0000 O   0  0  0
   -4.7661   -0.1291    0.0000 C   0  0  0
    1.4087    6.4565    0.0000 N   0  0  0
   -4.4609   -1.5848    0.0000 C   0  0  0
   -6.1983    0.3404    0.0000 C   0  0  0
    1.8548    7.9005    0.0000 C   0  0  0
    2.4065    5.3531    0.0000 C   0  0  0
   -5.5878   -2.5709    0.0000 C   0  0  0
   -7.3252   -0.6574    0.0000 C   0  0  0
    3.3104    8.2292    0.0000 C   0  0  0
    3.8622    5.6818    0.0000 C   0  0  0
   -7.0318   -2.1013    0.0000 C   0  0  0
   -5.2826   -4.0265    0.0000 C   0  0  0
    4.3083    7.1257    0.0000 C   0  0  0
    3.7565    9.6613    0.0000 C   0  0  0
   -4.0383   -4.8365    0.0000 C   0  0  0
   -6.1161   -5.2709    0.0000 C   0  0  0
   -6.7148   -3.5570    0.0000 C   0  0  0
    5.7639    7.4544    0.0000 C   0  0  0
    5.2122    9.9900    0.0000 C   0  0  0
   -4.8718   -6.0809    0.0000 O   0  0  0
   -7.8418   -4.5548    0.0000 C   0  0  0
    6.2100    8.8866    0.0000 C   0  0  0
   -9.3209   -4.2261    0.0000 N   0  0  0
   -7.7009   -6.0339    0.0000 N   0  0  0
    7.6657    9.2153    0.0000 C   0  0  0
  -10.0840   -5.5174    0.0000 N   0  0  0
   -9.0861   -6.6326    0.0000 C   0  0  0
   -6.4096   -6.7735    0.0000 C   0  0  0
    9.1213    9.5440    0.0000 N   0  0  0
  1  2  1
  2  3  1
  2  4  1
  2  5  1
  5  6  2
  5  7  1
  6  8  1
  6  9  1
  7 10  2
  8 11  1
  8 12  2
  9 13  1
 10 14  1
 11 15  2
 13 16  1
 14 17  1
 16 18  2
 16 19  1
 17 20  1
 17 21  1
 18 22  1
 19 23  2
 20 24  1
 21 25  1
 22 26  2
 22 27  1
 24 28  2
 24 29  1
 27 30  1
 27 31  1
 27 32  1
 28 33  1
 29 34  2
 30 35  1
 32 36  1
 33 37  2
 36 38  2
 36 39  1
 37 40  1
 38 41  1
 39 42  1
 39 43  1
 40 44  3
 10 12  1
 11 13  1
 23 26  1
 25 28  1
 31 35  1
 34 37  1
 41 42  2
M  END
> <COMPOUND_NAMES>
Example 706 (Page No: 783)

> <Reference>
WO2019148005

> <IC50_range_nM>
<100

> <smiles>
Cn1cnnc1CC1(COC1)c1cccc(c1)N1Cc2c(cc(CN3CCc4cc(C#N)ccc4C3)cc2C(F)(F)F)C1=O

$$$$
C33H32F3N5O3
  MOLSOFT 03092310482D

 44 50  0  0  0  0  0  0  0  0999 V2000
    0.0000   -0.0000    0.0000 F   0  0  0
   -0.7534    1.3066    0.0000 C   0  0  0
    0.5297    2.0600    0.0000 F   0  0  0
   -1.5067    2.6132    0.0000 F   0  0  0
   -2.0600    0.5768    0.0000 C   0  0  0
   -3.3666    1.3302    0.0000 C   0  0  0
   -2.0718   -0.9064    0.0000 C   0  0  0
   -4.6732    0.6003    0.0000 C   0  0  0
   -3.6844    2.8016    0.0000 C   0  0  0
   -3.3784   -1.6362    0.0000 C   0  0  0
   -5.7915    1.6127    0.0000 C   0  0  0
   -4.6850   -0.8829    0.0000 C   0  0  0
   -5.1794    2.9664    0.0000 N   0  0  0
   -3.3902   -3.1194    0.0000 C   0  0  0
   -7.2630    1.3184    0.0000 O   0  0  0
   -5.9328    4.2730    0.0000 C   0  0  0
   -4.6968   -3.8492    0.0000 N   0  0  0
   -7.4395    4.2848    0.0000 C   0  0  0
   -5.2030    5.5796    0.0000 C   0  0  0
   -6.0034   -3.0959    0.0000 C   0  0  0
   -4.7086   -5.3324    0.0000 C   0  0  0
   -8.1929    5.5914    0.0000 C   0  0  0
   -5.9681    6.8863    0.0000 C   0  0  0
   -7.3100   -3.8257    0.0000 C   0  0  0
   -6.0152   -6.0623    0.0000 C   0  0  0
   -7.4631    6.8980    0.0000 C   0  0  0
   -9.6996    5.6032    0.0000 C   0  0  0
   -7.3218   -5.3089    0.0000 C   0  0  0
   -8.6167   -3.0723    0.0000 C   0  0  0
  -10.7708    4.5555    0.0000 C   0  0  0
  -10.7708    6.6744    0.0000 C   0  0  0
   -8.9698    6.9098    0.0000 C   0  0  0
   -8.6284   -6.0387    0.0000 C   0  0  0
   -9.9233   -3.8022    0.0000 C   0  0  0
  -11.8420    5.6267    0.0000 O   0  0  0
   -9.7232    8.2164    0.0000 C   0  0  0
   -9.9351   -5.2854    0.0000 C   0  0  0
  -11.2299   -3.0488    0.0000 O   0  0  0
  -11.2181    8.3812    0.0000 N   0  0  0
   -9.1228    9.5937    0.0000 N   0  0  0
  -12.5365   -3.7786    0.0000 C   0  0  0
  -11.5360    9.8527    0.0000 N   0  0  0
  -10.2411   10.6060    0.0000 C   0  0  0
   -7.6750    9.9115    0.0000 C   0  0  0
  1  2  1
  2  3  1
  2  4  1
  2  5  1
  5  6  2
  5  7  1
  6  8  1
  6  9  1
  7 10  2
  8 11  1
  8 12  2
  9 13  1
 10 14  1
 11 15  2
 13 16  1
 14 17  1
 16 18  2
 16 19  1
 17 20  1
 17 21  1
 18 22  1
 19 23  2
 20 24  1
 21 25  1
 22 26  2
 22 27  1
 24 28  2
 24 29  1
 27 30  1
 27 31  1
 27 32  1
 28 33  1
 29 34  2
 30 35  1
 32 36  1
 33 37  2
 34 38  1
 36 39  2
 36 40  1
 38 41  1
 39 42  1
 40 43  1
 40 44  1
 10 12  1
 11 13  1
 23 26  1
 25 28  1
 31 35  1
 34 37  1
 42 43  2
M  END
> <COMPOUND_NAMES>
Example 661 (Page No: 746)

> <Reference>
WO2019148005

> <IC50_range_nM>
<100

> <smiles>
Cn1cnnc1CC1(COC1)c1cccc(c1)N1Cc2c(cc(CN3CCc4ccc(cc4C3)OC)cc2C(F)(F)F)C1=O

$$$$
C28H28F3N5O2
  MOLSOFT 03092310482D

 38 44  0  0  1  0  0  0  0  0999 V2000
    0.0000   -0.0000    0.0000 F   0  0  0
    1.1043    1.0103    0.0000 C   0  0  0
    2.0911   -0.0940    0.0000 F   0  0  0
    2.2085    2.0206    0.0000 F   0  0  0
    0.0940    2.1380    0.0000 C   0  0  0
   -1.3862    1.8326    0.0000 C   0  0  0
    0.5404    3.5712    0.0000 C   0  0  0
   -2.3965    2.9604    0.0000 C   0  0  0
   -2.1498    0.5404    0.0000 C   0  0  0
   -0.4699    4.6990    0.0000 C   0  0  0
   -3.7827    2.3612    0.0000 C   0  0  0
   -1.9501    4.3936    0.0000 C   0  0  0
   -3.6300    0.8693    0.0000 N   0  0  0
   -0.0235    6.1322    0.0000 C   0  0  0
   -5.0984    3.1248    0.0000 O   0  0  0
   -4.7577   -0.1175    0.0000 C   0  0  0
    1.4332    6.4611    0.0000 N   0  0  0
   -4.4523   -1.5742    0.0000 C   0  0  0
   -6.1909    0.3524    0.0000 C   0  0  0
    2.5375    5.4743    0.0000 C   0  0  2
    2.0323    7.8473    0.0000 C   0  0  0
   -5.5801   -2.5610    0.0000 C   0  0  0
   -7.3187   -0.6344    0.0000 C   0  0  0
    3.8179    6.2379    0.0000 C   0  0  1
    3.8297    4.7342    0.0000 C   0  0  0
    3.5125    7.7063    0.0000 C   0  0  0
   -7.0132   -2.0911    0.0000 C   0  0  0
   -5.2746   -4.0176    0.0000 C   0  0  0
   -4.0294   -4.8282    0.0000 C   0  0  0
   -6.1087   -5.2629    0.0000 C   0  0  0
   -6.7078   -3.5477    0.0000 C   0  0  0
   -4.8635   -6.0734    0.0000 O   0  0  0
   -7.8356   -4.5345    0.0000 C   0  0  0
   -9.3158   -4.2056    0.0000 N   0  0  0
   -7.6946   -6.0147    0.0000 N   0  0  0
  -10.0793   -5.4978    0.0000 N   0  0  0
   -9.0808   -6.6138    0.0000 C   0  0  0
   -6.4024   -6.7548    0.0000 C   0  0  0
  1  2  1
  2  3  1
  2  4  1
  2  5  1
  5  6  2
  5  7  1
  6  8  1
  6  9  1
  7 10  2
  8 11  1
  8 12  2
  9 13  1
 10 14  1
 11 15  2
 13 16  1
 14 17  1
 16 18  2
 16 19  1
 20 17  1  6  0
 17 21  1
 18 22  1
 19 23  2
 20 24  1
 20 25  1
 21 26  1
 22 27  2
 22 28  1
 28 29  1
 28 30  1
 28 31  1
 29 32  1
 31 33  1
 33 34  2
 33 35  1
 34 36  1
 35 37  1
 35 38  1
 10 12  1
 11 13  1
 23 27  1
 24 25  1  6  0
 24 26  1
 30 32  1
 36 37  2
M  END
> <COMPOUND_NAMES>
Example 486a (Stereo) (Page No: 638)

> <Reference>
WO2019148005

> <IC50_range_nM>
<100

> <smiles>
Cn1cnnc1CC1(COC1)c1cccc(c1)N1Cc2c(cc(CN3CC[C@@H]4C[C@H]34)cc2C(F)(F)F)C1=O

$$$$
C28H28F3N5O2
  MOLSOFT 03092310482D

 38 44  0  0  1  0  0  0  0  0999 V2000
    0.0000   -0.0000    0.0000 F   0  0  0
    1.1043    1.0103    0.0000 C   0  0  0
    2.0911   -0.0940    0.0000 F   0  0  0
    2.2085    2.0206    0.0000 F   0  0  0
    0.0940    2.1380    0.0000 C   0  0  0
   -1.3862    1.8326    0.0000 C   0  0  0
    0.5404    3.5712    0.0000 C   0  0  0
   -2.3965    2.9604    0.0000 C   0  0  0
   -2.1498    0.5404    0.0000 C   0  0  0
   -0.4699    4.6990    0.0000 C   0  0  0
   -3.7827    2.3612    0.0000 C   0  0  0
   -1.9501    4.3936    0.0000 C   0  0  0
   -3.6300    0.8693    0.0000 N   0  0  0
   -0.0235    6.1322    0.0000 C   0  0  0
   -5.0984    3.1248    0.0000 O   0  0  0
   -4.7577   -0.1175    0.0000 C   0  0  0
    1.4332    6.4611    0.0000 N   0  0  0
   -4.4523   -1.5742    0.0000 C   0  0  0
   -6.1909    0.3524    0.0000 C   0  0  0
    2.5375    5.4743    0.0000 C   0  0  2
    2.0323    7.8473    0.0000 C   0  0  0
   -5.5801   -2.5610    0.0000 C   0  0  0
   -7.3187   -0.6344    0.0000 C   0  0  0
    3.8179    6.2379    0.0000 C   0  0  1
    3.8297    4.7342    0.0000 C   0  0  0
    3.5125    7.7063    0.0000 C   0  0  0
   -7.0132   -2.0911    0.0000 C   0  0  0
   -5.2746   -4.0176    0.0000 C   0  0  0
   -4.0294   -4.8282    0.0000 C   0  0  0
   -6.1087   -5.2629    0.0000 C   0  0  0
   -6.7078   -3.5477    0.0000 C   0  0  0
   -4.8635   -6.0734    0.0000 O   0  0  0
   -7.8356   -4.5345    0.0000 C   0  0  0
   -9.3158   -4.2056    0.0000 N   0  0  0
   -7.6946   -6.0147    0.0000 N   0  0  0
  -10.0793   -5.4978    0.0000 N   0  0  0
   -9.0808   -6.6138    0.0000 C   0  0  0
   -6.4024   -6.7548    0.0000 C   0  0  0
  1  2  1
  2  3  1
  2  4  1
  2  5  1
  5  6  2
  5  7  1
  6  8  1
  6  9  1
  7 10  2
  8 11  1
  8 12  2
  9 13  1
 10 14  1
 11 15  2
 13 16  1
 14 17  1
 16 18  2
 16 19  1
 20 17  1  6  0
 17 21  1
 18 22  1
 19 23  2
 20 24  1
 20 25  1
 21 26  1
 22 27  2
 22 28  1
 28 29  1
 28 30  1
 28 31  1
 29 32  1
 31 33  1
 33 34  2
 33 35  1
 34 36  1
 35 37  1
 35 38  1
 10 12  1
 11 13  1
 23 27  1
 24 25  1  6  0
 24 26  1
 30 32  1
 36 37  2
M  END
> <COMPOUND_NAMES>
Example 486b (Stereo) (Page No: 638)

> <Reference>
WO2019148005

> <IC50_range_nM>
<100

> <smiles>
Cn1cnnc1CC1(COC1)c1cccc(c1)N1Cc2c(cc(CN3CC[C@@H]4C[C@H]34)cc2C(F)(F)F)C1=O

$$$$
C29H30F3N5O2
  MOLSOFT 03092310482D

 39 45  0  0  0  0  0  0  0  0999 V2000
    0.0000   -0.0000    0.0000 F   0  0  0
    1.1034    1.0095    0.0000 C   0  0  0
    2.1011   -0.0939    0.0000 F   0  0  0
    2.2067    2.0306    0.0000 F   0  0  0
    0.0822    2.1363    0.0000 C   0  0  0
   -1.3968    1.8311    0.0000 C   0  0  0
    0.5282    3.5683    0.0000 C   0  0  0
   -2.4180    2.9579    0.0000 C   0  0  0
   -2.1598    0.5399    0.0000 C   0  0  0
   -0.4930    4.6951    0.0000 C   0  0  0
   -3.8031    2.3593    0.0000 C   0  0  0
   -1.9720    4.3900    0.0000 C   0  0  0
   -3.6387    0.8686    0.0000 N   0  0  0
   -0.0470    6.1272    0.0000 C   0  0  0
   -5.1177    3.1223    0.0000 O   0  0  0
   -4.7656   -0.1291    0.0000 C   0  0  0
    1.4085    6.4558    0.0000 N   0  0  0
   -4.4604   -1.5846    0.0000 C   0  0  0
   -6.1976    0.3404    0.0000 C   0  0  0
    2.4063    5.3525    0.0000 C   0  0  3
    1.8546    7.8878    0.0000 C   0  0  0
   -5.5872   -2.5706    0.0000 C   0  0  0
   -7.3244   -0.6573    0.0000 C   0  0  0
    3.8618    5.6811    0.0000 C   0  0  3
    3.3922    4.2491    0.0000 C   0  0  0
    3.3101    8.2165    0.0000 C   0  0  0
   -7.0310   -2.1011    0.0000 C   0  0  0
   -5.2820   -4.0261    0.0000 C   0  0  0
    4.3078    7.1131    0.0000 C   0  0  0
   -4.0378   -4.8360    0.0000 C   0  0  0
   -6.1154   -5.2703    0.0000 C   0  0  0
   -6.7141   -3.5566    0.0000 C   0  0  0
   -4.8712   -6.0802    0.0000 O   0  0  0
   -7.8409   -4.5543    0.0000 C   0  0  0
   -9.3199   -4.2256    0.0000 N   0  0  0
   -7.7000   -6.0333    0.0000 N   0  0  0
  -10.0828   -5.5168    0.0000 N   0  0  0
   -9.0851   -6.6319    0.0000 C   0  0  0
   -6.4089   -6.7727    0.0000 C   0  0  0
  1  2  1
  2  3  1
  2  4  1
  2  5  1
  5  6  2
  5  7  1
  6  8  1
  6  9  1
  7 10  2
  8 11  1
  8 12  2
  9 13  1
 10 14  1
 11 15  2
 13 16  1
 14 17  1
 16 18  2
 16 19  1
 20 17  1
 17 21  1
 18 22  1
 19 23  2
 20 24  1
 20 25  1
 21 26  1
 22 27  2
 22 28  1
 24 29  1
 28 30  1
 28 31  1
 28 32  1
 30 33  1
 32 34  1
 34 35  2
 34 36  1
 35 37  1
 36 38  1
 36 39  1
 10 12  1
 11 13  1
 23 27  1
 24 25  1
 26 29  1
 31 33  1
 37 38  2
M  END
> <COMPOUND_NAMES>
Example 490 (+/-) (Page No: 639)

> <Reference>
WO2019148005

> <IC50_range_nM>
<100

> <smiles>
Cn1cnnc1CC1(COC1)c1cccc(c1)N1Cc2c(cc(CN3CCCC4CC34)cc2C(F)(F)F)C1=O

$$$$
C27H25F3N6O2
  MOLSOFT 03092310482D

 38 43  0  0  0  0  0  0  0  0999 V2000
    0.0000   -0.0000    0.0000 F   0  0  0
   -0.0118   -1.4877    0.0000 C   0  0  0
    1.4759   -1.4759    0.0000 F   0  0  0
   -1.5232   -1.4759    0.0000 F   0  0  0
   -0.0236   -2.9755    0.0000 C   0  0  0
   -1.3342   -3.7075    0.0000 C   0  0  0
    1.2634   -3.7075    0.0000 C   0  0  0
   -1.3460   -5.1952    0.0000 C   0  0  0
   -2.7747   -3.2352    0.0000 C   0  0  0
    1.2516   -5.1952    0.0000 C   0  0  0
   -2.7865   -5.6439    0.0000 C   0  0  0
   -0.0590   -5.9273    0.0000 C   0  0  0
   -3.6721   -4.4396    0.0000 N   0  0  0
    2.5386   -5.9273    0.0000 C   0  0  3
   -3.2588   -7.0608    0.0000 O   0  0  0
   -5.1834   -4.4278    0.0000 C   0  0  0
    3.8256   -5.1716    0.0000 N   0  0  0
    2.5268   -7.4150    0.0000 C   0  0  0
   -5.9391   -5.7148    0.0000 C   0  0  0
   -5.9391   -3.1171    0.0000 C   0  0  0
    5.1834   -5.7738    0.0000 C   0  0  0
    3.9673   -3.6721    0.0000 C   0  0  0
   -7.4504   -5.7030    0.0000 C   0  0  0
   -7.4504   -3.1053    0.0000 C   0  0  0
    6.1753   -4.6521    0.0000 N   0  0  0
    5.4196   -3.3533    0.0000 C   0  0  0
   -8.2061   -4.3923    0.0000 C   0  0  0
   -8.2061   -6.9900    0.0000 C   0  0  0
   -7.8283   -8.4305    0.0000 C   0  0  0
   -9.6702   -7.3678    0.0000 C   0  0  0
   -8.9618   -5.6793    0.0000 C   0  0  0
   -9.2924   -8.8083    0.0000 O   0  0  0
  -10.4731   -5.6675    0.0000 C   0  0  0
  -11.3705   -6.8719    0.0000 N   0  0  0
  -11.3705   -4.4396    0.0000 N   0  0  0
  -12.8110   -6.3996    0.0000 N   0  0  0
  -12.8110   -4.8882    0.0000 C   0  0  0
  -10.9218   -2.9991    0.0000 C   0  0  0
  1  2  1
  2  3  1
  2  4  1
  2  5  1
  5  6  2
  5  7  1
  6  8  1
  6  9  1
  7 10  2
  8 11  1
  8 12  2
  9 13  1
 14 10  1
 11 15  2
 13 16  1
 14 17  1
 14 18  1
 16 19  2
 16 20  1
 17 21  1
 17 22  1
 19 23  1
 20 24  2
 21 25  2
 22 26  2
 23 27  2
 23 28  1
 28 29  1
 28 30  1
 28 31  1
 29 32  1
 31 33  1
 33 34  2
 33 35  1
 34 36  1
 35 37  1
 35 38  1
 10 12  1
 11 13  1
 24 27  1
 25 26  1
 30 32  1
 36 37  2
M  END
> <COMPOUND_NAMES>
Example 542 (+/-) (Page No: 677)

> <Reference>
WO2019148005

> <IC50_range_nM>
<100

> <smiles>
CC(c1cc2C(N(Cc2c(c1)C(F)(F)F)c1cccc(c1)C1(Cc2nncn2C)COC1)=O)n1ccnc1

$$$$
C29H31F3N6O2
  MOLSOFT 03092310482D

 40 46  0  0  1  0  0  0  0  0999 V2000
    0.0000   -0.0000    0.0000 F   0  0  0
    1.1035    1.0095    0.0000 C   0  0  0
    2.0895   -0.0939    0.0000 F   0  0  0
    2.2069    2.0191    0.0000 F   0  0  0
    0.0939    2.1365    0.0000 C   0  0  0
   -1.3852    1.8313    0.0000 C   0  0  0
    0.5400    3.5686    0.0000 C   0  0  0
   -2.3947    2.9582    0.0000 C   0  0  0
   -2.1482    0.5400    0.0000 C   0  0  0
   -0.4696    4.6956    0.0000 C   0  0  0
   -3.7799    2.3595    0.0000 C   0  0  0
   -1.9487    4.3903    0.0000 C   0  0  0
   -3.6273    0.8687    0.0000 N   0  0  0
   -0.0235    6.1277    0.0000 N   0  0  0
   -5.0947    3.1225    0.0000 O   0  0  0
   -4.7542   -0.1174    0.0000 C   0  0  0
   -1.0330    7.2546    0.0000 C   0  0  0
    1.4321    6.4564    0.0000 C   0  0  0
   -4.4490   -1.5730    0.0000 C   0  0  0
   -6.1864    0.3522    0.0000 C   0  0  0
   -0.5869    8.6868    0.0000 C   0  0  2
    1.8782    7.8885    0.0000 C   0  0  0
   -5.5760   -2.5591    0.0000 C   0  0  0
   -7.3133   -0.6339    0.0000 C   0  0  0
    0.8687    9.0037    0.0000 N   0  0  0
   -1.3500   10.0015    0.0000 C   0  0  0
   -7.0081   -2.0895    0.0000 C   0  0  0
   -5.2825   -4.0147    0.0000 C   0  0  0
    1.0095   10.5063    0.0000 C   0  0  0
   -0.3639   11.1285    0.0000 C   0  0  0
   -4.0382   -4.8129    0.0000 C   0  0  0
   -6.1042   -5.2590    0.0000 C   0  0  0
   -6.7146   -3.5451    0.0000 C   0  0  0
   -4.8599   -6.0573    0.0000 O   0  0  0
   -7.8416   -4.5312    0.0000 C   0  0  0
   -9.3207   -4.2143    0.0000 N   0  0  0
   -7.7007   -6.0103    0.0000 N   0  0  0
  -10.0837   -5.5055    0.0000 N   0  0  0
   -9.0859   -6.6090    0.0000 C   0  0  0
   -6.4094   -6.7499    0.0000 C   0  0  0
  1  2  1
  2  3  1
  2  4  1
  2  5  1
  5  6  2
  5  7  1
  6  8  1
  6  9  1
  7 10  2
  8 11  1
  8 12  2
  9 13  1
 10 14  1
 11 15  2
 13 16  1
 14 17  1
 14 18  1
 16 19  2
 16 20  1
 21 17  1
 18 22  1
 19 23  1
 20 24  2
 21 25  1  1  0
 21 26  1
 23 27  2
 23 28  1
 25 29  1
 26 30  1
 28 31  1
 28 32  1
 28 33  1
 31 34  1
 33 35  1
 35 36  2
 35 37  1
 36 38  1
 37 39  1
 37 40  1
 10 12  1
 11 13  1
 22 25  1
 24 27  1
 29 30  1
 32 34  1
 38 39  2
M  END
> <COMPOUND_NAMES>
Example 590 (R) (Page No: 710)

> <Reference>
WO2019148005

> <IC50_range_nM>
<100

> <smiles>
Cn1cnnc1CC1(COC1)c1cccc(c1)N1Cc2c(cc(cc2C(F)(F)F)N2CCN3CCC[C@@H]3C2)C1=O

$$$$
C29H31F3N6O2
  MOLSOFT 03092310482D

 40 46  0  0  1  0  0  0  0  0999 V2000
    0.0000   -0.0000    0.0000 F   0  0  0
    1.1035    1.0095    0.0000 C   0  0  0
    2.0895   -0.0939    0.0000 F   0  0  0
    2.2069    2.0191    0.0000 F   0  0  0
    0.0939    2.1365    0.0000 C   0  0  0
   -1.3852    1.8313    0.0000 C   0  0  0
    0.5400    3.5686    0.0000 C   0  0  0
   -2.3947    2.9582    0.0000 C   0  0  0
   -2.1482    0.5400    0.0000 C   0  0  0
   -0.4696    4.6956    0.0000 C   0  0  0
   -3.7799    2.3595    0.0000 C   0  0  0
   -1.9487    4.3903    0.0000 C   0  0  0
   -3.6273    0.8687    0.0000 N   0  0  0
   -0.0235    6.1277    0.0000 N   0  0  0
   -5.0947    3.1225    0.0000 O   0  0  0
   -4.7542   -0.1174    0.0000 C   0  0  0
   -1.0330    7.2546    0.0000 C   0  0  0
    1.4321    6.4564    0.0000 C   0  0  0
   -4.4490   -1.5730    0.0000 C   0  0  0
   -6.1864    0.3522    0.0000 C   0  0  0
   -0.5869    8.6868    0.0000 C   0  0  1
    1.8782    7.8885    0.0000 C   0  0  0
   -5.5760   -2.5591    0.0000 C   0  0  0
   -7.3133   -0.6339    0.0000 C   0  0  0
    0.8687    9.0037    0.0000 N   0  0  0
   -1.3500   10.0015    0.0000 C   0  0  0
   -7.0081   -2.0895    0.0000 C   0  0  0
   -5.2825   -4.0147    0.0000 C   0  0  0
    1.0095   10.5063    0.0000 C   0  0  0
   -0.3639   11.1285    0.0000 C   0  0  0
   -4.0382   -4.8129    0.0000 C   0  0  0
   -6.1042   -5.2590    0.0000 C   0  0  0
   -6.7146   -3.5451    0.0000 C   0  0  0
   -4.8599   -6.0573    0.0000 O   0  0  0
   -7.8416   -4.5312    0.0000 C   0  0  0
   -9.3207   -4.2143    0.0000 N   0  0  0
   -7.7007   -6.0103    0.0000 N   0  0  0
  -10.0837   -5.5055    0.0000 N   0  0  0
   -9.0859   -6.6090    0.0000 C   0  0  0
   -6.4094   -6.7499    0.0000 C   0  0  0
  1  2  1
  2  3  1
  2  4  1
  2  5  1
  5  6  2
  5  7  1
  6  8  1
  6  9  1
  7 10  2
  8 11  1
  8 12  2
  9 13  1
 10 14  1
 11 15  2
 13 16  1
 14 17  1
 14 18  1
 16 19  2
 16 20  1
 21 17  1
 18 22  1
 19 23  1
 20 24  2
 21 25  1  6  0
 21 26  1
 23 27  2
 23 28  1
 25 29  1
 26 30  1
 28 31  1
 28 32  1
 28 33  1
 31 34  1
 33 35  1
 35 36  2
 35 37  1
 36 38  1
 37 39  1
 37 40  1
 10 12  1
 11 13  1
 22 25  1
 24 27  1
 29 30  1
 32 34  1
 38 39  2
M  END
> <COMPOUND_NAMES>
Example 591 (S) (Page No: 711)

> <Reference>
WO2019148005

> <IC50_range_nM>
<100

> <smiles>
Cn1cnnc1CC1(COC1)c1cccc(c1)N1Cc2c(cc(cc2C(F)(F)F)N2CCN3CCC[C@H]3C2)C1=O

$$$$
C30H31F3N6O3
  MOLSOFT 03092310482D

 42 48  0  0  0  0  0  0  0  0999 V2000
    0.0000   -0.0000    0.0000 F   0  0  0
    1.1001    1.0173    0.0000 C   0  0  0
    2.0936   -0.0828    0.0000 F   0  0  0
    2.2001    2.0345    0.0000 F   0  0  0
    0.0828    2.1410    0.0000 C   0  0  0
   -1.3958    1.8452    0.0000 C   0  0  0
    0.5323    3.5840    0.0000 C   0  0  0
   -2.4130    2.9690    0.0000 C   0  0  0
   -2.1528    0.5559    0.0000 C   0  0  0
   -0.4850    4.7078    0.0000 C   0  0  0
   -3.7970    2.3657    0.0000 C   0  0  0
   -1.9635    4.4120    0.0000 C   0  0  0
   -3.6314    0.8753    0.0000 N   0  0  0
   -0.0355    6.1508    0.0000 C   0  0  0
   -5.1099    3.1227    0.0000 O   0  0  0
   -4.7551   -0.1183    0.0000 C   0  0  0
    1.4194    6.4702    0.0000 N   0  0  0
   -4.4594   -1.5732    0.0000 C   0  0  0
   -6.1981    0.3549    0.0000 C   0  0  0
    2.4130    5.3701    0.0000 C   0  0  0
    1.8689    7.9133    0.0000 C   0  0  0
   -5.5831   -2.5668    0.0000 C   0  0  0
   -7.3219   -0.6387    0.0000 C   0  0  0
    3.8679    5.6895    0.0000 C   0  0  3
    3.3238    8.2326    0.0000 C   0  0  0
   -7.0261   -2.0936    0.0000 C   0  0  0
   -5.2873   -4.0217    0.0000 C   0  0  0
    4.3174    7.1326    0.0000 N   0  0  0
    5.0744    4.8142    0.0000 C   0  0  0
   -4.0454   -4.8260    0.0000 C   0  0  0
   -6.1153   -5.2637    0.0000 C   0  0  0
   -6.7304   -3.5486    0.0000 C   0  0  0
    5.8078    7.1444    0.0000 C   0  0  0
    6.2809    5.7132    0.0000 C   0  0  0
   -4.8733   -6.0680    0.0000 O   0  0  0
   -7.8541   -4.5422    0.0000 C   0  0  0
    6.6831    8.3746    0.0000 O   0  0  0
   -9.3327   -4.2228    0.0000 N   0  0  0
   -7.7122   -6.0207    0.0000 N   0  0  0
  -10.0897   -5.5121    0.0000 N   0  0  0
   -9.0961   -6.6240    0.0000 C   0  0  0
   -6.4229   -6.7541    0.0000 C   0  0  0
  1  2  1
  2  3  1
  2  4  1
  2  5  1
  5  6  2
  5  7  1
  6  8  1
  6  9  1
  7 10  2
  8 11  1
  8 12  2
  9 13  1
 10 14  1
 11 15  2
 13 16  1
 14 17  1
 16 18  2
 16 19  1
 17 20  1
 17 21  1
 18 22  1
 19 23  2
 24 20  1
 21 25  1
 22 26  2
 22 27  1
 24 28  1
 24 29  1
 27 30  1
 27 31  1
 27 32  1
 28 33  1
 29 34  1
 30 35  1
 32 36  1
 33 37  2
 36 38  2
 36 39  1
 38 40  1
 39 41  1
 39 42  1
 10 12  1
 11 13  1
 23 26  1
 25 28  1
 31 35  1
 33 34  1
 40 41  2
M  END
> <COMPOUND_NAMES>
Example 711 (+/-) (Page No: 785)

> <Reference>
WO2019148005

> <IC50_range_nM>
<100

> <smiles>
Cn1cnnc1CC1(COC1)c1cccc(c1)N1Cc2c(cc(CN3CCN4C(CCC4=O)C3)cc2C(F)(F)F)C1=O

$$$$
C25H23F3N4O3
  MOLSOFT 03092310482D

 35 40  0  0  0  0  0  0  0  0999 V2000
    0.0000   -0.0000    0.0000 F   0  0  0
    1.0994    1.0059    0.0000 C   0  0  0
    2.0936   -0.0936    0.0000 F   0  0  0
    2.1989    2.0234    0.0000 F   0  0  0
    0.0819    2.1287    0.0000 C   0  0  0
   -1.3918    1.8246    0.0000 C   0  0  0
    0.5263    3.5556    0.0000 C   0  0  0
   -2.4094    2.9474    0.0000 C   0  0  0
   -2.1521    0.5380    0.0000 C   0  0  0
   -0.4912    4.6785    0.0000 C   0  0  0
   -3.7896    2.3509    0.0000 C   0  0  0
   -1.9650    4.3744    0.0000 C   0  0  0
   -3.6258    0.8655    0.0000 N   0  0  0
   -0.0468    6.1054    0.0000 O   0  0  0
   -5.0995    3.1112    0.0000 O   0  0  0
   -4.7487   -0.1287    0.0000 C   0  0  0
    1.4035    6.4329    0.0000 C   0  0  0
   -6.1756    0.3392    0.0000 C   0  0  0
   -4.4446   -1.5790    0.0000 C   0  0  0
    2.5030    7.4388    0.0000 C   0  0  0
    2.8071    5.9885    0.0000 C   0  0  0
   -7.2984   -0.6550    0.0000 C   0  0  0
   -5.5674   -2.5615    0.0000 C   0  0  0
   -6.9943   -2.1053    0.0000 C   0  0  0
   -8.7371   -0.1871    0.0000 C   0  0  0
  -10.0821   -0.8538    0.0000 C   0  0  0
   -9.4271    1.1579    0.0000 C   0  0  0
   -7.6376    0.8304    0.0000 C   0  0  0
  -10.7722    0.4912    0.0000 O   0  0  0
   -7.9651    2.3042    0.0000 C   0  0  0
   -6.9709    3.4270    0.0000 N   0  0  0
   -9.3453    2.9241    0.0000 N   0  0  0
   -7.7312    4.7370    0.0000 N   0  0  0
   -9.2049    4.4212    0.0000 C   0  0  0
  -10.6552    2.1872    0.0000 C   0  0  0
  1  2  1
  2  3  1
  2  4  1
  2  5  1
  5  6  2
  5  7  1
  6  8  1
  6  9  1
  7 10  2
  8 11  1
  8 12  2
  9 13  1
 10 14  1
 11 15  2
 13 16  1
 14 17  1
 16 18  2
 16 19  1
 17 20  1
 17 21  1
 18 22  1
 19 23  2
 22 24  2
 22 25  1
 25 26  1
 25 27  1
 25 28  1
 26 29  1
 28 30  1
 30 31  2
 30 32  1
 31 33  1
 32 34  1
 32 35  1
 10 12  1
 11 13  1
 20 21  1
 23 24  1
 27 29  1
 33 34  2
M  END
> <COMPOUND_NAMES>
Example 513 (Page No: 653)

> <Reference>
WO2019148005

> <IC50_range_nM>
<100

> <smiles>
Cn1cnnc1CC1(COC1)c1cccc(c1)N1Cc2c(cc(cc2C(F)(F)F)OC2CC2)C1=O

$$$$
C25H24F3N5O3
  MOLSOFT 03092310482D

 36 41  0  0  0  0  0  0  0  0999 V2000
    0.0000   -0.0000    0.0000 F   0  0  0
    1.0992    1.0057    0.0000 C   0  0  0
    2.0932   -0.0936    0.0000 F   0  0  0
    2.1984    2.0230    0.0000 F   0  0  0
    0.0819    2.1283    0.0000 C   0  0  0
   -1.3916    1.8242    0.0000 C   0  0  0
    0.5262    3.5549    0.0000 C   0  0  0
   -2.4089    2.9469    0.0000 C   0  0  0
   -2.1517    0.5379    0.0000 C   0  0  0
   -0.4911    4.6775    0.0000 C   0  0  0
   -3.7888    2.3505    0.0000 C   0  0  0
   -1.9646    4.3735    0.0000 C   0  0  0
   -3.6251    0.8653    0.0000 N   0  0  0
   -0.0468    6.1042    0.0000 O   0  0  0
   -5.0985    3.1106    0.0000 O   0  0  0
   -4.7477   -0.1286    0.0000 C   0  0  0
    1.4033    6.4316    0.0000 C   0  0  0
   -6.1744    0.3391    0.0000 C   0  0  0
   -4.4437   -1.5787    0.0000 C   0  0  0
    2.2101    7.6946    0.0000 C   0  0  0
    2.6428    5.6247    0.0000 C   0  0  0
   -7.2970   -0.6549    0.0000 C   0  0  0
   -5.5663   -2.5610    0.0000 C   0  0  0
    3.4497    6.8877    0.0000 N   0  0  0
   -6.9929   -2.1049    0.0000 C   0  0  0
   -8.7353   -0.1871    0.0000 C   0  0  0
  -10.0801   -0.8537    0.0000 C   0  0  0
   -9.4252    1.1577    0.0000 C   0  0  0
   -7.6361    0.8303    0.0000 C   0  0  0
  -10.7700    0.4911    0.0000 O   0  0  0
   -7.9635    2.3037    0.0000 C   0  0  0
   -6.9695    3.4263    0.0000 N   0  0  0
   -9.3434    2.9235    0.0000 N   0  0  0
   -7.7296    4.7360    0.0000 N   0  0  0
   -9.2031    4.4203    0.0000 C   0  0  0
  -10.6531    2.1868    0.0000 C   0  0  0
  1  2  1
  2  3  1
  2  4  1
  2  5  1
  5  6  2
  5  7  1
  6  8  1
  6  9  1
  7 10  2
  8 11  1
  8 12  2
  9 13  1
 10 14  1
 11 15  2
 13 16  1
 14 17  1
 16 18  2
 16 19  1
 17 20  1
 17 21  1
 18 22  1
 19 23  2
 20 24  1
 22 25  2
 22 26  1
 26 27  1
 26 28  1
 26 29  1
 27 30  1
 29 31  1
 31 32  2
 31 33  1
 32 34  1
 33 35  1
 33 36  1
 10 12  1
 11 13  1
 21 24  1
 23 25  1
 28 30  1
 34 35  2
M  END
> <COMPOUND_NAMES>
Example 514 (Page No: 654)

> <Reference>
WO2019148005

> <IC50_range_nM>
<100

> <smiles>
Cn1cnnc1CC1(COC1)c1cccc(c1)N1Cc2c(cc(cc2C(F)(F)F)OC2CNC2)C1=O

$$$$
C23H19F5N4O3
  MOLSOFT 03092310482D

 35 39  0  0  0  0  0  0  0  0999 V2000
    0.0000   -0.0000    0.0000 F   0  0  0
    1.1026    1.0087    0.0000 C   0  0  0
    2.0996   -0.0938    0.0000 F   0  0  0
    2.2052    2.0292    0.0000 F   0  0  0
    0.0821    2.1348    0.0000 C   0  0  0
   -1.3958    1.8298    0.0000 C   0  0  0
    0.5278    3.5658    0.0000 C   0  0  0
   -2.4163    2.9558    0.0000 C   0  0  0
   -2.1582    0.5396    0.0000 C   0  0  0
   -0.4926    4.6918    0.0000 C   0  0  0
   -3.8004    2.3576    0.0000 C   0  0  0
   -1.9706    4.3868    0.0000 C   0  0  0
   -3.6362    0.8680    0.0000 N   0  0  0
   -0.0469    6.1228    0.0000 O   0  0  0
   -5.1141    3.1201    0.0000 O   0  0  0
   -4.7622   -0.1290    0.0000 C   0  0  0
    1.4075    6.4512    0.0000 C   0  0  0
   -4.4572   -1.5835    0.0000 C   0  0  0
   -6.1932    0.3402    0.0000 C   0  0  0
    1.8533    7.8822    0.0000 F   0  0  0
    2.4046    5.3487    0.0000 F   0  0  0
   -5.5833   -2.5688    0.0000 C   0  0  0
   -7.3192   -0.6569    0.0000 C   0  0  0
   -7.0260   -2.0996    0.0000 C   0  0  0
   -5.2783   -4.0232    0.0000 C   0  0  0
   -4.0350   -4.8326    0.0000 C   0  0  0
   -6.1111   -5.2666    0.0000 C   0  0  0
   -6.7093   -3.5540    0.0000 C   0  0  0
   -4.8678   -6.0759    0.0000 O   0  0  0
   -7.8353   -4.5511    0.0000 C   0  0  0
   -9.3132   -4.2226    0.0000 N   0  0  0
   -7.6946   -6.0290    0.0000 N   0  0  0
  -10.0757   -5.5129    0.0000 N   0  0  0
   -9.0787   -6.6272    0.0000 C   0  0  0
   -6.4043   -6.7679    0.0000 C   0  0  0
  1  2  1
  2  3  1
  2  4  1
  2  5  1
  5  6  2
  5  7  1
  6  8  1
  6  9  1
  7 10  2
  8 11  1
  8 12  2
  9 13  1
 10 14  1
 11 15  2
 13 16  1
 14 17  1
 16 18  2
 16 19  1
 17 20  1
 17 21  1
 18 22  1
 19 23  2
 22 24  2
 22 25  1
 25 26  1
 25 27  1
 25 28  1
 26 29  1
 28 30  1
 30 31  2
 30 32  1
 31 33  1
 32 34  1
 32 35  1
 10 12  1
 11 13  1
 23 24  1
 27 29  1
 33 34  2
M  END
> <COMPOUND_NAMES>
Example 595 (Page No: 714)

> <Reference>
WO2019148005

> <IC50_range_nM>
<100

> <smiles>
Cn1cnnc1CC1(COC1)c1cccc(c1)N1Cc2c(cc(cc2C(F)(F)F)OC(F)F)C1=O

$$$$
C30H33F3N6O3
  MOLSOFT 03092310482D

 42 48  0  0  1  0  0  0  0  0999 V2000
    0.0000   -0.0000    0.0000 F   0  0  0
    1.1032    1.0094    0.0000 C   0  0  0
    2.1009   -0.0939    0.0000 F   0  0  0
    2.2065    2.0304    0.0000 F   0  0  0
    0.0822    2.1361    0.0000 C   0  0  0
   -1.3967    1.8309    0.0000 C   0  0  0
    0.5282    3.5679    0.0000 C   0  0  0
   -2.4178    2.9576    0.0000 C   0  0  0
   -2.1595    0.5399    0.0000 C   0  0  0
   -0.4929    4.6947    0.0000 C   0  0  0
   -3.8027    2.3591    0.0000 C   0  0  0
   -1.9718    4.3895    0.0000 C   0  0  0
   -3.6384    0.8685    0.0000 N   0  0  0
   -0.0469    6.1265    0.0000 C   0  0  0
   -5.1172    3.1220    0.0000 O   0  0  0
   -4.7651   -0.1291    0.0000 C   0  0  0
    1.4084    6.4552    0.0000 N   0  0  0
   -4.4599   -1.5845    0.0000 C   0  0  0
   -6.1970    0.3404    0.0000 C   0  0  0
    1.8544    7.8870    0.0000 C   0  0  0
    2.4060    5.3519    0.0000 C   0  0  0
   -5.5867   -2.5703    0.0000 C   0  0  0
   -7.3237   -0.6573    0.0000 C   0  0  0
    3.3097    8.2157    0.0000 C   0  0  2
    3.8614    5.6805    0.0000 C   0  0  0
   -7.0303   -2.1009    0.0000 C   0  0  0
   -5.2815   -4.0257    0.0000 C   0  0  0
    3.7557    9.6593    0.0000 O   0  0  0
    4.3074    7.1124    0.0000 C   0  0  1
   -4.0374   -4.8355    0.0000 C   0  0  0
   -6.1148   -5.2698    0.0000 C   0  0  0
   -6.7134   -3.5562    0.0000 C   0  0  0
    5.2111    9.9879    0.0000 C   0  0  0
    5.7627    7.4410    0.0000 N   0  0  0
   -4.8707   -6.0796    0.0000 O   0  0  0
   -7.8401   -4.5538    0.0000 C   0  0  0
    6.2087    8.8847    0.0000 C   0  0  0
   -9.3189   -4.2252    0.0000 N   0  0  0
   -7.6993   -6.0326    0.0000 N   0  0  0
  -10.0818   -5.5162    0.0000 N   0  0  0
   -9.0842   -6.6312    0.0000 C   0  0  0
   -6.4082   -6.7721    0.0000 C   0  0  0
  1  2  1
  2  3  1
  2  4  1
  2  5  1
  5  6  2
  5  7  1
  6  8  1
  6  9  1
  7 10  2
  8 11  1
  8 12  2
  9 13  1
 10 14  1
 11 15  2
 13 16  1
 14 17  1
 16 18  2
 16 19  1
 17 20  1
 17 21  1
 18 22  1
 19 23  2
 24 20  1
 21 25  1
 22 26  2
 22 27  1
 24 28  1  6  0
 24 29  1
 27 30  1
 27 31  1
 27 32  1
 28 33  1
 29 34  1  6  0
 30 35  1
 32 36  1
 33 37  1
 36 38  2
 36 39  1
 38 40  1
 39 41  1
 39 42  1
 10 12  1
 11 13  1
 23 26  1
 29 25  1
 31 35  1
 34 37  1
 40 41  2
M  END
> <COMPOUND_NAMES>
Example 713 (Stereo) (Page No: 786)

> <Reference>
WO2019148005

> <IC50_range_nM>
<100

> <smiles>
Cn1cnnc1CC1(COC1)c1cccc(c1)N1Cc2c(cc(CN3CC[C@@H]4[C@H](C3)OCCN4)cc2C(F)(F)F)C1=O

$$$$
C25H22F3N5O4
  MOLSOFT 03092310482D

 37 42  0  0  0  0  0  0  0  0999 V2000
    0.0000   -0.0000    0.0000 F   0  0  0
    1.0978    1.0152    0.0000 C   0  0  0
    2.0894   -0.0826    0.0000 F   0  0  0
    2.1957    2.0304    0.0000 F   0  0  0
    0.0826    2.1367    0.0000 C   0  0  0
   -1.3930    1.8415    0.0000 C   0  0  0
    0.5312    3.5768    0.0000 C   0  0  0
   -2.4082    2.9630    0.0000 C   0  0  0
   -2.1603    0.5548    0.0000 C   0  0  0
   -0.4840    4.6983    0.0000 C   0  0  0
   -3.7893    2.3609    0.0000 C   0  0  0
   -1.9596    4.4032    0.0000 C   0  0  0
   -3.6359    0.8735    0.0000 N   0  0  0
   -0.0354    6.1385    0.0000 N   0  0  0
   -5.0996    3.1164    0.0000 O   0  0  0
   -4.7573   -0.1180    0.0000 C   0  0  0
    1.3812    6.6106    0.0000 C   0  0  0
   -0.9326    7.3661    0.0000 C   0  0  0
   -4.4622   -1.5700    0.0000 C   0  0  0
   -6.1975    0.3541    0.0000 C   0  0  0
    2.5852    5.7371    0.0000 O   0  0  0
    1.3693    8.1216    0.0000 O   0  0  0
   -0.0590    8.5938    0.0000 C   0  0  0
   -5.5836   -2.5616    0.0000 C   0  0  0
   -7.3189   -0.6375    0.0000 C   0  0  0
   -7.0238   -2.0894    0.0000 C   0  0  0
   -5.2885   -4.0136    0.0000 C   0  0  0
   -4.0372   -4.8163    0.0000 C   0  0  0
   -6.1148   -5.2649    0.0000 C   0  0  0
   -6.7287   -3.5414    0.0000 C   0  0  0
   -4.8635   -6.0676    0.0000 O   0  0  0
   -7.8501   -4.5330    0.0000 C   0  0  0
   -9.3257   -4.2143    0.0000 N   0  0  0
   -7.7085   -6.0086    0.0000 N   0  0  0
  -10.0812   -5.5010    0.0000 N   0  0  0
   -9.0896   -6.6106    0.0000 C   0  0  0
   -6.4218   -6.7405    0.0000 C   0  0  0
  1  2  1
  2  3  1
  2  4  1
  2  5  1
  5  6  2
  5  7  1
  6  8  1
  6  9  1
  7 10  2
  8 11  1
  8 12  2
  9 13  1
 10 14  1
 11 15  2
 13 16  1
 14 17  1
 14 18  1
 16 19  2
 16 20  1
 17 21  2
 17 22  1
 18 23  1
 19 24  1
 20 25  2
 24 26  2
 24 27  1
 27 28  1
 27 29  1
 27 30  1
 28 31  1
 30 32  1
 32 33  2
 32 34  1
 33 35  1
 34 36  1
 34 37  1
 10 12  1
 11 13  1
 22 23  1
 25 26  1
 29 31  1
 35 36  2
M  END
> <COMPOUND_NAMES>
Example 561 (Page No: 693)

> <Reference>
WO2019148005

> <IC50_range_nM>
<100

> <smiles>
Cn1cnnc1CC1(COC1)c1cccc(c1)N1Cc2c(cc(cc2C(F)(F)F)N2CCOC2=O)C1=O

$$$$
C30H27F3N6O2
  MOLSOFT 03092310482D

 41 47  0  0  0  0  0  0  0  0999 V2000
    0.0000   -0.0000    0.0000 F   0  0  0
    1.1047    1.0107    0.0000 C   0  0  0
    2.0919   -0.0940    0.0000 F   0  0  0
    2.2094    2.0213    0.0000 F   0  0  0
    0.0940    2.1389    0.0000 C   0  0  0
   -1.3867    1.8333    0.0000 C   0  0  0
    0.5406    3.5726    0.0000 C   0  0  0
   -2.3974    2.9615    0.0000 C   0  0  0
   -2.1506    0.5406    0.0000 C   0  0  0
   -0.4701    4.7008    0.0000 C   0  0  0
   -3.7842    2.3622    0.0000 C   0  0  0
   -1.9508    4.3953    0.0000 C   0  0  0
   -3.6314    0.8697    0.0000 N   0  0  0
   -0.0235    6.1346    0.0000 C   0  0  0
   -5.1004    3.1260    0.0000 O   0  0  0
   -4.7596   -0.1175    0.0000 C   0  0  0
    1.4337    6.4636    0.0000 N   0  0  0
   -4.4540   -1.5748    0.0000 C   0  0  0
   -6.1933    0.3526    0.0000 C   0  0  0
    2.0331    7.8504    0.0000 C   0  0  0
    2.5384    5.4764    0.0000 C   0  0  0
   -5.5822   -2.5619    0.0000 C   0  0  0
   -7.3215   -0.6346    0.0000 C   0  0  0
    3.5139    7.7093    0.0000 C   0  0  0
    3.8312    6.2403    0.0000 C   0  0  0
   -7.0160   -2.0919    0.0000 C   0  0  0
   -5.2767   -4.0192    0.0000 C   0  0  0
    4.6185    8.7200    0.0000 N   0  0  0
    5.2414    5.7937    0.0000 C   0  0  0
   -4.0309   -4.8301    0.0000 C   0  0  0
   -6.1111   -5.2649    0.0000 C   0  0  0
   -6.7104   -3.5491    0.0000 C   0  0  0
    6.0288    8.2734    0.0000 C   0  0  0
    6.3461    6.8044    0.0000 C   0  0  0
   -4.8653   -6.0758    0.0000 O   0  0  0
   -7.8386   -4.5363    0.0000 C   0  0  0
   -9.3194   -4.2072    0.0000 N   0  0  0
   -7.6976   -6.0170    0.0000 N   0  0  0
  -10.0832   -5.4999    0.0000 N   0  0  0
   -9.0843   -6.6164    0.0000 C   0  0  0
   -6.4049   -6.7574    0.0000 C   0  0  0
  1  2  1
  2  3  1
  2  4  1
  2  5  1
  5  6  2
  5  7  1
  6  8  1
  6  9  1
  7 10  2
  8 11  1
  8 12  2
  9 13  1
 10 14  1
 11 15  2
 13 16  1
 14 17  1
 16 18  2
 16 19  1
 17 20  1
 17 21  1
 18 22  1
 19 23  2
 20 24  1
 21 25  1
 22 26  2
 22 27  1
 24 28  1
 25 29  1
 27 30  1
 27 31  1
 27 32  1
 28 33  2
 29 34  2
 30 35  1
 32 36  1
 36 37  2
 36 38  1
 37 39  1
 38 40  1
 38 41  1
 10 12  1
 11 13  1
 23 26  1
 24 25  2
 31 35  1
 33 34  1
 39 40  2
M  END
> <COMPOUND_NAMES>
Example 660 (Page No: 746)

> <Reference>
WO2019148005

> <IC50_range_nM>
<100

> <smiles>
Cn1cnnc1CC1(COC1)c1cccc(c1)N1Cc2c(cc(CN3Cc4cccnc4C3)cc2C(F)(F)F)C1=O

$$$$
C31H29F3N6O2
  MOLSOFT 03092310482D

 42 48  0  0  0  0  0  0  0  0999 V2000
    0.0000   -0.0000    0.0000 F   0  0  0
    1.1032    1.0094    0.0000 C   0  0  0
    2.1009   -0.0939    0.0000 F   0  0  0
    2.2065    2.0304    0.0000 F   0  0  0
    0.0822    2.1361    0.0000 C   0  0  0
   -1.3967    1.8309    0.0000 C   0  0  0
    0.5282    3.5679    0.0000 C   0  0  0
   -2.4178    2.9576    0.0000 C   0  0  0
   -2.1595    0.5399    0.0000 C   0  0  0
   -0.4929    4.6947    0.0000 C   0  0  0
   -3.8027    2.3591    0.0000 C   0  0  0
   -1.9718    4.3895    0.0000 C   0  0  0
   -3.6384    0.8685    0.0000 N   0  0  0
   -0.0469    6.1265    0.0000 C   0  0  0
   -5.1172    3.1220    0.0000 O   0  0  0
   -4.7651   -0.1291    0.0000 C   0  0  0
    1.4084    6.4552    0.0000 N   0  0  0
   -4.4599   -1.5845    0.0000 C   0  0  0
   -6.1970    0.3404    0.0000 C   0  0  0
    1.8544    7.8988    0.0000 C   0  0  0
    2.4060    5.3519    0.0000 C   0  0  0
   -5.5867   -2.5703    0.0000 C   0  0  0
   -7.3237   -0.6573    0.0000 C   0  0  0
    3.3097    8.2274    0.0000 C   0  0  0
    3.8614    5.6805    0.0000 C   0  0  0
   -7.0303   -2.1009    0.0000 C   0  0  0
   -5.2815   -4.0257    0.0000 C   0  0  0
    4.3074    7.1242    0.0000 C   0  0  0
    3.7557    9.6593    0.0000 C   0  0  0
   -4.0374   -4.8355    0.0000 C   0  0  0
   -6.1148   -5.2698    0.0000 C   0  0  0
   -6.7134   -3.5562    0.0000 C   0  0  0
    5.7627    7.4528    0.0000 N   0  0  0
    5.2111    9.9879    0.0000 C   0  0  0
   -4.8707   -6.0796    0.0000 O   0  0  0
   -7.8401   -4.5538    0.0000 C   0  0  0
    6.2087    8.8847    0.0000 C   0  0  0
   -9.3189   -4.2252    0.0000 N   0  0  0
   -7.6993   -6.0326    0.0000 N   0  0  0
  -10.0818   -5.5162    0.0000 N   0  0  0
   -9.0842   -6.6312    0.0000 C   0  0  0
   -6.4082   -6.7721    0.0000 C   0  0  0
  1  2  1
  2  3  1
  2  4  1
  2  5  1
  5  6  2
  5  7  1
  6  8  1
  6  9  1
  7 10  2
  8 11  1
  8 12  2
  9 13  1
 10 14  1
 11 15  2
 13 16  1
 14 17  1
 16 18  2
 16 19  1
 17 20  1
 17 21  1
 18 22  1
 19 23  2
 20 24  1
 21 25  1
 22 26  2
 22 27  1
 24 28  2
 24 29  1
 27 30  1
 27 31  1
 27 32  1
 28 33  1
 29 34  2
 30 35  1
 32 36  1
 33 37  2
 36 38  2
 36 39  1
 38 40  1
 39 41  1
 39 42  1
 10 12  1
 11 13  1
 23 26  1
 25 28  1
 31 35  1
 34 37  1
 40 41  2
M  END
> <COMPOUND_NAMES>
Example 709 (Page No: 784)

> <Reference>
WO2019148005

> <IC50_range_nM>
<100

> <smiles>
Cn1cnnc1CC1(COC1)c1cccc(c1)N1Cc2c(cc(CN3CCc4c(C3)cccn4)cc2C(F)(F)F)C1=O

$$$$
C31H29F3N6O2
  MOLSOFT 03092310482D

 42 48  0  0  0  0  0  0  0  0999 V2000
    0.0000   -0.0000    0.0000 F   0  0  0
    1.1032    1.0094    0.0000 C   0  0  0
    2.1009   -0.0939    0.0000 F   0  0  0
    2.2065    2.0304    0.0000 F   0  0  0
    0.0822    2.1361    0.0000 C   0  0  0
   -1.3967    1.8309    0.0000 C   0  0  0
    0.5282    3.5679    0.0000 C   0  0  0
   -2.4178    2.9576    0.0000 C   0  0  0
   -2.1595    0.5399    0.0000 C   0  0  0
   -0.4929    4.6947    0.0000 C   0  0  0
   -3.8027    2.3591    0.0000 C   0  0  0
   -1.9718    4.3895    0.0000 C   0  0  0
   -3.6384    0.8685    0.0000 N   0  0  0
   -0.0469    6.1265    0.0000 C   0  0  0
   -5.1172    3.1220    0.0000 O   0  0  0
   -4.7651   -0.1291    0.0000 C   0  0  0
    1.4084    6.4552    0.0000 N   0  0  0
   -4.4599   -1.5845    0.0000 C   0  0  0
   -6.1970    0.3404    0.0000 C   0  0  0
    1.8544    7.8988    0.0000 C   0  0  0
    2.4060    5.3519    0.0000 C   0  0  0
   -5.5867   -2.5703    0.0000 C   0  0  0
   -7.3237   -0.6573    0.0000 C   0  0  0
    3.3097    8.2274    0.0000 C   0  0  0
    3.8614    5.6805    0.0000 C   0  0  0
   -7.0303   -2.1009    0.0000 C   0  0  0
   -5.2815   -4.0257    0.0000 C   0  0  0
    3.7557    9.6593    0.0000 N   0  0  0
    4.3074    7.1242    0.0000 C   0  0  0
   -4.0374   -4.8355    0.0000 C   0  0  0
   -6.1148   -5.2698    0.0000 C   0  0  0
   -6.7134   -3.5562    0.0000 C   0  0  0
    5.2111    9.9879    0.0000 C   0  0  0
    5.7627    7.4528    0.0000 C   0  0  0
   -4.8707   -6.0796    0.0000 O   0  0  0
   -7.8401   -4.5538    0.0000 C   0  0  0
    6.2087    8.8847    0.0000 C   0  0  0
   -9.3189   -4.2252    0.0000 N   0  0  0
   -7.6993   -6.0326    0.0000 N   0  0  0
  -10.0818   -5.5162    0.0000 N   0  0  0
   -9.0842   -6.6312    0.0000 C   0  0  0
   -6.4082   -6.7721    0.0000 C   0  0  0
  1  2  1
  2  3  1
  2  4  1
  2  5  1
  5  6  2
  5  7  1
  6  8  1
  6  9  1
  7 10  2
  8 11  1
  8 12  2
  9 13  1
 10 14  1
 11 15  2
 13 16  1
 14 17  1
 16 18  2
 16 19  1
 17 20  1
 17 21  1
 18 22  1
 19 23  2
 20 24  1
 21 25  1
 22 26  2
 22 27  1
 24 28  2
 24 29  1
 27 30  1
 27 31  1
 27 32  1
 28 33  1
 29 34  2
 30 35  1
 32 36  1
 33 37  2
 36 38  2
 36 39  1
 38 40  1
 39 41  1
 39 42  1
 10 12  1
 11 13  1
 23 26  1
 25 29  1
 31 35  1
 34 37  1
 40 41  2
M  END
> <COMPOUND_NAMES>
Example 645 (Page No: 740)

> <Reference>
WO2019148005

> <IC50_range_nM>
<100

> <smiles>
Cn1cnnc1CC1(COC1)c1cccc(c1)N1Cc2c(cc(CN3CCc4cccnc4C3)cc2C(F)(F)F)C1=O

$$$$
C29H30F3N5O2
  MOLSOFT 03092310482D

 39 45  0  0  0  0  0  0  0  0999 V2000
    0.0000   -0.0000    0.0000 F   0  0  0
    1.0821    1.0019    0.0000 C   0  0  0
    2.0439   -0.0802    0.0000 F   0  0  0
    2.1641    2.0038    0.0000 F   0  0  0
    0.0802    2.1241    0.0000 C   0  0  0
   -1.3826    1.8435    0.0000 C   0  0  0
    0.5210    3.5468    0.0000 C   0  0  0
   -2.3846    2.9657    0.0000 C   0  0  0
   -2.1441    0.5811    0.0000 C   0  0  0
   -0.4809    4.6689    0.0000 C   0  0  0
   -3.7472    2.3846    0.0000 C   0  0  0
   -1.9437    4.3884    0.0000 C   0  0  0
   -3.6069    0.9017    0.0000 N   0  0  0
   -0.0401    6.0917    0.0000 C   0  0  0
   -5.0497    3.1460    0.0000 O   0  0  0
   -4.7291   -0.0601    0.0000 C   0  0  0
    1.3826    6.4123    0.0000 N   0  0  0
   -4.4485   -1.4828    0.0000 C   0  0  0
   -6.1518    0.4208    0.0000 C   0  0  0
    3.9075    6.4724    0.0000 C   0  0  0
    2.6250    7.1938    0.0000 C   0  0  0
   -5.5707   -2.4447    0.0000 C   0  0  0
   -7.2739   -0.5410    0.0000 C   0  0  0
    4.2882    5.0697    0.0000 C   0  0  0
    4.2481    7.9151    0.0000 C   0  0  0
    3.0258    5.8111    0.0000 C   0  0  0
    2.9657    8.6365    0.0000 C   0  0  0
   -6.9934   -1.9638    0.0000 C   0  0  0
   -5.2901   -3.8674    0.0000 C   0  0  0
   -4.0678   -4.6489    0.0000 C   0  0  0
   -6.1117   -5.0897    0.0000 C   0  0  0
   -6.7128   -3.3865    0.0000 C   0  0  0
   -4.8894   -5.8712    0.0000 O   0  0  0
   -7.8350   -4.3483    0.0000 C   0  0  0
   -9.2978   -4.0277    0.0000 N   0  0  0
   -7.6947   -5.7911    0.0000 N   0  0  0
  -10.0593   -5.2901    0.0000 N   0  0  0
   -9.0573   -6.3722    0.0000 C   0  0  0
   -6.4323   -6.5125    0.0000 C   0  0  0
  1  2  1
  2  3  1
  2  4  1
  2  5  1
  5  6  2
  5  7  1
  6  8  1
  6  9  1
  7 10  2
  8 11  1
  8 12  2
  9 13  1
 10 14  1
 11 15  2
 13 16  1
 14 17  1
 16 18  2
 16 19  1
 17 20  1
 17 21  1
 18 22  1
 19 23  2
 20 24  1
 20 25  1
 21 26  1
 21 27  1
 22 28  2
 22 29  1
 29 30  1
 29 31  1
 29 32  1
 30 33  1
 32 34  1
 34 35  2
 34 36  1
 35 37  1
 36 38  1
 36 39  1
 10 12  1
 11 13  1
 23 28  1
 24 26  1
 25 27  1
 31 33  1
 37 38  2
M  END
> <COMPOUND_NAMES>
Example 555 (Page No: 689)

> <Reference>
WO2019148005

> <IC50_range_nM>
<100

> <smiles>
Cn1cnnc1CC1(COC1)c1cccc(c1)N1Cc2c(cc(CN3C4CCC3CC4)cc2C(F)(F)F)C1=O

$$$$
C30H32F3N5O2
  MOLSOFT 03092310482D

 40 46  0  0  0  0  0  0  0  0999 V2000
    0.0000   -0.0000    0.0000 F   0  0  0
    1.0524    0.9852    0.0000 C   0  0  0
    1.9928   -0.0672    0.0000 F   0  0  0
    2.1048    1.9705    0.0000 F   0  0  0
    0.0672    2.0824    0.0000 C   0  0  0
   -1.3659    1.8137    0.0000 C   0  0  0
    0.4926    3.4707    0.0000 C   0  0  0
   -2.3511    2.9109    0.0000 C   0  0  0
   -2.1048    0.5822    0.0000 C   0  0  0
   -0.4926    4.5679    0.0000 C   0  0  0
   -3.6946    2.3511    0.0000 C   0  0  0
   -1.9257    4.2992    0.0000 C   0  0  0
   -3.5379    0.8957    0.0000 N   0  0  0
   -0.0672    5.9561    0.0000 C   0  0  0
   -4.9709    3.0900    0.0000 O   0  0  0
   -4.6350   -0.0448    0.0000 C   0  0  0
    1.3211    6.2696    0.0000 N   0  0  0
   -4.3663   -1.4331    0.0000 C   0  0  0
   -6.0233    0.4254    0.0000 C   0  0  0
    4.1424    6.4935    0.0000 C   0  0  3
    2.7542    6.9862    0.0000 C   0  0  3
   -5.4635   -2.3735    0.0000 C   0  0  0
   -7.1205   -0.5150    0.0000 C   0  0  0
    4.3216    8.0162    0.0000 C   0  0  0
    4.7470    5.2172    0.0000 C   0  0  0
    3.0452    8.3744    0.0000 C   0  0  0
    3.4035    5.7322    0.0000 C   0  0  0
   -6.8518   -1.9033    0.0000 C   0  0  0
   -5.1948   -3.7618    0.0000 C   0  0  0
    2.3735    9.6060    0.0000 C   0  0  0
   -4.0081   -4.5231    0.0000 C   0  0  0
   -6.0009   -4.9485    0.0000 C   0  0  0
   -6.5831   -3.2916    0.0000 C   0  0  0
   -4.8142   -5.7098    0.0000 O   0  0  0
   -7.6803   -4.2320    0.0000 C   0  0  0
   -9.1134   -3.9185    0.0000 N   0  0  0
   -7.5459   -5.6427    0.0000 N   0  0  0
   -9.8523   -5.1501    0.0000 N   0  0  0
   -8.8894   -6.2025    0.0000 C   0  0  0
   -6.3144   -6.3368    0.0000 C   0  0  0
  1  2  1
  2  3  1
  2  4  1
  2  5  1
  5  6  2
  5  7  1
  6  8  1
  6  9  1
  7 10  2
  8 11  1
  8 12  2
  9 13  1
 10 14  1
 11 15  2
 13 16  1
 14 17  1
 16 18  2
 16 19  1
 20 17  1
 21 17  1
 18 22  1
 19 23  2
 20 24  1
 20 25  1
 21 26  1
 21 27  1
 22 28  2
 22 29  1
 24 30  1
 29 31  1
 29 32  1
 29 33  1
 31 34  1
 33 35  1
 35 36  2
 35 37  1
 36 38  1
 37 39  1
 37 40  1
 10 12  1
 11 13  1
 23 28  1
 25 27  1
 26 30  1
 32 34  1
 38 39  2
M  END
> <COMPOUND_NAMES>
Example 556 (+/-) (Page No: 690)

> <Reference>
WO2019148005

> <IC50_range_nM>
<100

> <smiles>
Cn1cnnc1CC1(COC1)c1cccc(c1)N1Cc2c(cc(CN3C4CCCC3CC4)cc2C(F)(F)F)C1=O

$$$$
C30H31F4N5O2
  MOLSOFT 03092310482D

 41 47  0  0  0  0  0  0  0  0999 V2000
    0.0000   -0.0000    0.0000 F   0  0  0
    1.0527    0.9855    0.0000 C   0  0  0
    1.9934   -0.0672    0.0000 F   0  0  0
    2.1054    1.9710    0.0000 F   0  0  0
    0.0672    2.0830    0.0000 C   0  0  0
   -1.3663    1.8142    0.0000 C   0  0  0
    0.4928    3.4717    0.0000 C   0  0  0
   -2.3518    2.9118    0.0000 C   0  0  0
   -2.1054    0.5824    0.0000 C   0  0  0
   -0.4928    4.5692    0.0000 C   0  0  0
   -3.6957    2.3518    0.0000 C   0  0  0
   -1.9262    4.3004    0.0000 C   0  0  0
   -3.5389    0.8959    0.0000 N   0  0  0
   -0.0672    5.9579    0.0000 C   0  0  0
   -4.9724    3.0909    0.0000 O   0  0  0
   -4.6364   -0.0448    0.0000 C   0  0  0
    1.3215    6.2715    0.0000 N   0  0  0
   -4.3676   -1.4335    0.0000 C   0  0  0
   -6.0251    0.4256    0.0000 C   0  0  0
    4.1436    6.4954    0.0000 C   0  0  2
    2.7550    6.9882    0.0000 C   0  0  1
   -5.4651   -2.3742    0.0000 C   0  0  0
   -7.1226   -0.5152    0.0000 C   0  0  0
    4.3228    8.0185    0.0000 C   0  0  0
    4.7484    5.2188    0.0000 C   0  0  0
    3.0461    8.3769    0.0000 C   0  0  0
    3.4045    5.7339    0.0000 C   0  0  0
   -6.8538   -1.9038    0.0000 C   0  0  0
   -5.1964   -3.7629    0.0000 C   0  0  0
    2.3742    9.6088    0.0000 C   0  0  0
   -4.0093   -4.5244    0.0000 C   0  0  0
   -6.0027   -4.9500    0.0000 C   0  0  0
   -6.5850   -3.2925    0.0000 C   0  0  0
    1.4335   10.7511    0.0000 F   0  0  0
   -4.8156   -5.7115    0.0000 O   0  0  0
   -7.6825   -4.2332    0.0000 C   0  0  0
   -9.1160   -3.9197    0.0000 N   0  0  0
   -7.5482   -5.6443    0.0000 N   0  0  0
   -9.8552   -5.1516    0.0000 N   0  0  0
   -8.8920   -6.2043    0.0000 C   0  0  0
   -6.3163   -6.3387    0.0000 C   0  0  0
  1  2  1
  2  3  1
  2  4  1
  2  5  1
  5  6  2
  5  7  1
  6  8  1
  6  9  1
  7 10  2
  8 11  1
  8 12  2
  9 13  1
 10 14  1
 11 15  2
 13 16  1
 14 17  1
 16 18  2
 16 19  1
 20 17  1  6  0
 21 17  1  1  0
 18 22  1
 19 23  2
 20 24  1
 20 25  1
 21 26  1
 21 27  1
 22 28  2
 22 29  1
 24 30  1
 29 31  1
 29 32  1
 29 33  1
 30 34  1
 31 35  1
 33 36  1
 36 37  2
 36 38  1
 37 39  1
 38 40  1
 38 41  1
 10 12  1
 11 13  1
 23 28  1
 25 27  1
 26 30  1
 32 35  1
 39 40  2
M  END
> <COMPOUND_NAMES>
Example 557 (Stereo) (Page No: 690)

> <Reference>
WO2019148005

> <IC50_range_nM>
<100

> <smiles>
Cn1cnnc1CC1(COC1)c1cccc(c1)N1Cc2c(cc(CN3[C@H]4CC[C@@H]3CC(C4)F)cc2C(F)(F)F)C1=O

$$$$
C29H29F4N5O2
  MOLSOFT 03092310482D

 40 46  0  0  1  0  0  0  0  0999 V2000
    0.0000   -0.0000    0.0000 F   0  0  0
    1.0706    0.9913    0.0000 C   0  0  0
    2.0223   -0.0793    0.0000 F   0  0  0
    2.1413    1.9827    0.0000 F   0  0  0
    0.0793    2.1016    0.0000 C   0  0  0
   -1.3680    1.8241    0.0000 C   0  0  0
    0.5155    3.5093    0.0000 C   0  0  0
   -2.3594    2.9344    0.0000 C   0  0  0
   -2.1215    0.5750    0.0000 C   0  0  0
   -0.4758    4.6196    0.0000 C   0  0  0
   -3.7076    2.3594    0.0000 C   0  0  0
   -1.9232    4.3421    0.0000 C   0  0  0
   -3.5688    0.8922    0.0000 N   0  0  0
   -0.0397    6.0273    0.0000 C   0  0  0
   -4.9963    3.1128    0.0000 O   0  0  0
   -4.6791   -0.0595    0.0000 C   0  0  0
    1.3680    6.3446    0.0000 N   0  0  0
   -4.4015   -1.4672    0.0000 C   0  0  0
   -6.0868    0.4164    0.0000 C   0  0  0
    3.8662    6.4040    0.0000 C   0  0  0
    2.5973    7.1178    0.0000 C   0  0  0
   -5.5118   -2.4189    0.0000 C   0  0  0
   -7.1971   -0.5353    0.0000 C   0  0  0
    4.2429    5.0162    0.0000 C   0  0  0
    4.2033    7.8316    0.0000 C   0  0  0
    2.9938    5.7498    0.0000 C   0  0  0
    2.9344    8.5453    0.0000 C   0  0  0
   -6.9195   -1.9430    0.0000 C   0  0  0
   -5.0757   -4.5403    0.0000 C   0  0  0
   -6.4834   -4.0645    0.0000 C   0  0  2
   -3.8662   -5.3136    0.0000 C   0  0  0
   -5.8885   -5.7498    0.0000 C   0  0  0
   -6.8006   -2.6171    0.0000 F   0  0  0
   -7.5936   -5.0162    0.0000 C   0  0  0
   -4.6791   -6.5230    0.0000 O   0  0  0
   -9.0410   -4.6989    0.0000 N   0  0  0
   -7.4549   -6.4437    0.0000 N   0  0  0
   -9.7944   -5.9480    0.0000 N   0  0  0
   -8.8031   -7.0187    0.0000 C   0  0  0
   -6.2058   -7.1575    0.0000 C   0  0  0
  1  2  1
  2  3  1
  2  4  1
  2  5  1
  5  6  2
  5  7  1
  6  8  1
  6  9  1
  7 10  2
  8 11  1
  8 12  2
  9 13  1
 10 14  1
 11 15  2
 13 16  1
 14 17  1
 16 18  2
 16 19  1
 17 20  1
 17 21  1
 18 22  1
 19 23  2
 20 24  1
 20 25  1
 21 26  1
 21 27  1
 22 28  2
 22 29  1
 30 29  1
 29 31  1
 29 32  1
 30 33  1  1  0
 30 34  1
 31 35  1
 34 36  2
 34 37  1
 36 38  1
 37 39  1
 37 40  1
 10 12  1
 11 13  1
 23 28  1
 24 26  1
 25 27  1
 32 35  1
 38 39  2
M  END
> <COMPOUND_NAMES>
Example 671a (S) (Page No: 754)

> <Reference>
WO2019148005

> <IC50_range_nM>
<100

> <smiles>
Cn1cnnc1[C@H](C1(COC1)c1cccc(c1)N1Cc2c(cc(CN3C4CCC3CC4)cc2C(F)(F)F)C1=O)F

$$$$
C29H29F4N5O2
  MOLSOFT 03092310482D

 40 46  0  0  1  0  0  0  0  0999 V2000
    0.0000   -0.0000    0.0000 F   0  0  0
    1.0706    0.9913    0.0000 C   0  0  0
    2.0223   -0.0793    0.0000 F   0  0  0
    2.1413    1.9827    0.0000 F   0  0  0
    0.0793    2.1016    0.0000 C   0  0  0
   -1.3680    1.8241    0.0000 C   0  0  0
    0.5155    3.5093    0.0000 C   0  0  0
   -2.3594    2.9344    0.0000 C   0  0  0
   -2.1215    0.5750    0.0000 C   0  0  0
   -0.4758    4.6196    0.0000 C   0  0  0
   -3.7076    2.3594    0.0000 C   0  0  0
   -1.9232    4.3421    0.0000 C   0  0  0
   -3.5688    0.8922    0.0000 N   0  0  0
   -0.0397    6.0273    0.0000 C   0  0  0
   -4.9963    3.1128    0.0000 O   0  0  0
   -4.6791   -0.0595    0.0000 C   0  0  0
    1.3680    6.3446    0.0000 N   0  0  0
   -4.4015   -1.4672    0.0000 C   0  0  0
   -6.0868    0.4164    0.0000 C   0  0  0
    3.8662    6.4040    0.0000 C   0  0  0
    2.5973    7.1178    0.0000 C   0  0  0
   -5.5118   -2.4189    0.0000 C   0  0  0
   -7.1971   -0.5353    0.0000 C   0  0  0
    4.2429    5.0162    0.0000 C   0  0  0
    4.2033    7.8316    0.0000 C   0  0  0
    2.9938    5.7498    0.0000 C   0  0  0
    2.9344    8.5453    0.0000 C   0  0  0
   -6.9195   -1.9430    0.0000 C   0  0  0
   -5.0757   -4.5403    0.0000 C   0  0  0
   -6.4834   -4.0645    0.0000 C   0  0  1
   -3.8662   -5.3136    0.0000 C   0  0  0
   -5.8885   -5.7498    0.0000 C   0  0  0
   -6.8006   -2.6171    0.0000 F   0  0  0
   -7.5936   -5.0162    0.0000 C   0  0  0
   -4.6791   -6.5230    0.0000 O   0  0  0
   -9.0410   -4.6989    0.0000 N   0  0  0
   -7.4549   -6.4437    0.0000 N   0  0  0
   -9.7944   -5.9480    0.0000 N   0  0  0
   -8.8031   -7.0187    0.0000 C   0  0  0
   -6.2058   -7.1575    0.0000 C   0  0  0
  1  2  1
  2  3  1
  2  4  1
  2  5  1
  5  6  2
  5  7  1
  6  8  1
  6  9  1
  7 10  2
  8 11  1
  8 12  2
  9 13  1
 10 14  1
 11 15  2
 13 16  1
 14 17  1
 16 18  2
 16 19  1
 17 20  1
 17 21  1
 18 22  1
 19 23  2
 20 24  1
 20 25  1
 21 26  1
 21 27  1
 22 28  2
 22 29  1
 30 29  1
 29 31  1
 29 32  1
 30 33  1  6  0
 30 34  1
 31 35  1
 34 36  2
 34 37  1
 36 38  1
 37 39  1
 37 40  1
 10 12  1
 11 13  1
 23 28  1
 24 26  1
 25 27  1
 32 35  1
 38 39  2
M  END
> <COMPOUND_NAMES>
Example 671b (R) (Page No: 754)

> <Reference>
WO2019148005

> <IC50_range_nM>
<100

> <smiles>
Cn1cnnc1[C@@H](C1(COC1)c1cccc(c1)N1Cc2c(cc(CN3C4CCC3CC4)cc2C(F)(F)F)C1=O)F

$$$$
C30H31F4N5O2
  MOLSOFT 03092310482D

 41 47  0  0  1  0  0  0  0  0999 V2000
    0.0000   -0.0000    0.0000 F   0  0  0
    1.0421    0.9755    0.0000 C   0  0  0
    1.9732   -0.0665    0.0000 F   0  0  0
    2.0841    1.9511    0.0000 F   0  0  0
    0.0665    2.0619    0.0000 C   0  0  0
   -1.3524    1.7959    0.0000 C   0  0  0
    0.4878    3.4366    0.0000 C   0  0  0
   -2.3280    2.8823    0.0000 C   0  0  0
   -2.0841    0.5765    0.0000 C   0  0  0
   -0.4878    4.5229    0.0000 C   0  0  0
   -3.6583    2.3280    0.0000 C   0  0  0
   -1.9067    4.2569    0.0000 C   0  0  0
   -3.5031    0.8869    0.0000 N   0  0  0
   -0.0665    5.8976    0.0000 C   0  0  0
   -4.9220    3.0596    0.0000 O   0  0  0
   -4.5895   -0.0443    0.0000 C   0  0  0
    1.3081    6.2080    0.0000 N   0  0  0
   -4.3234   -1.4190    0.0000 C   0  0  0
   -5.9641    0.4213    0.0000 C   0  0  0
    4.1017    6.4297    0.0000 C   0  0  3
    2.7271    6.9174    0.0000 C   0  0  3
   -5.4098   -2.3502    0.0000 C   0  0  0
   -7.0505   -0.5099    0.0000 C   0  0  0
    4.2791    7.9373    0.0000 C   0  0  0
    4.7003    5.1659    0.0000 C   0  0  0
    3.0153    8.2921    0.0000 C   0  0  0
    3.3700    5.6759    0.0000 C   0  0  0
   -6.7844   -1.8846    0.0000 C   0  0  0
   -4.9885   -4.4343    0.0000 C   0  0  0
    2.3502    9.5115    0.0000 C   0  0  0
   -6.3632   -3.9687    0.0000 C   0  0  2
   -3.8135   -5.1881    0.0000 C   0  0  0
   -5.7867   -5.6093    0.0000 C   0  0  0
   -6.6736   -2.5497    0.0000 F   0  0  0
   -7.4496   -4.8999    0.0000 C   0  0  0
   -4.6116   -6.3632    0.0000 O   0  0  0
   -8.8685   -4.5895    0.0000 N   0  0  0
   -7.3165   -6.2967    0.0000 N   0  0  0
   -9.6002   -5.8089    0.0000 N   0  0  0
   -8.6468   -6.8509    0.0000 C   0  0  0
   -6.0971   -6.9840    0.0000 C   0  0  0
  1  2  1
  2  3  1
  2  4  1
  2  5  1
  5  6  2
  5  7  1
  6  8  1
  6  9  1
  7 10  2
  8 11  1
  8 12  2
  9 13  1
 10 14  1
 11 15  2
 13 16  1
 14 17  1
 16 18  2
 16 19  1
 20 17  1
 21 17  1
 18 22  1
 19 23  2
 20 24  1
 20 25  1
 21 26  1
 21 27  1
 22 28  2
 22 29  1
 24 30  1
 31 29  1
 29 32  1
 29 33  1
 31 34  1  1  0
 31 35  1
 32 36  1
 35 37  2
 35 38  1
 37 39  1
 38 40  1
 38 41  1
 10 12  1
 11 13  1
 23 28  1
 25 27  1
 26 30  1
 33 36  1
 39 40  2
M  END
> <COMPOUND_NAMES>
Example 675a (S) (Page No: 757)

> <Reference>
WO2019148005

> <IC50_range_nM>
<100

> <smiles>
Cn1cnnc1[C@H](C1(COC1)c1cccc(c1)N1Cc2c(cc(CN3C4CCCC3CC4)cc2C(F)(F)F)C1=O)F

$$$$
C30H31F4N5O2
  MOLSOFT 03092310482D

 41 47  0  0  1  0  0  0  0  0999 V2000
    0.0000   -0.0000    0.0000 F   0  0  0
    1.0421    0.9755    0.0000 C   0  0  0
    1.9732   -0.0665    0.0000 F   0  0  0
    2.0841    1.9511    0.0000 F   0  0  0
    0.0665    2.0619    0.0000 C   0  0  0
   -1.3524    1.7959    0.0000 C   0  0  0
    0.4878    3.4366    0.0000 C   0  0  0
   -2.3280    2.8823    0.0000 C   0  0  0
   -2.0841    0.5765    0.0000 C   0  0  0
   -0.4878    4.5229    0.0000 C   0  0  0
   -3.6583    2.3280    0.0000 C   0  0  0
   -1.9067    4.2569    0.0000 C   0  0  0
   -3.5031    0.8869    0.0000 N   0  0  0
   -0.0665    5.8976    0.0000 C   0  0  0
   -4.9220    3.0596    0.0000 O   0  0  0
   -4.5895   -0.0443    0.0000 C   0  0  0
    1.3081    6.2080    0.0000 N   0  0  0
   -4.3234   -1.4190    0.0000 C   0  0  0
   -5.9641    0.4213    0.0000 C   0  0  0
    4.1017    6.4297    0.0000 C   0  0  3
    2.7271    6.9174    0.0000 C   0  0  3
   -5.4098   -2.3502    0.0000 C   0  0  0
   -7.0505   -0.5099    0.0000 C   0  0  0
    4.2791    7.9373    0.0000 C   0  0  0
    4.7003    5.1659    0.0000 C   0  0  0
    3.0153    8.2921    0.0000 C   0  0  0
    3.3700    5.6759    0.0000 C   0  0  0
   -6.7844   -1.8846    0.0000 C   0  0  0
   -4.9885   -4.4343    0.0000 C   0  0  0
    2.3502    9.5115    0.0000 C   0  0  0
   -6.3632   -3.9687    0.0000 C   0  0  1
   -3.8135   -5.1881    0.0000 C   0  0  0
   -5.7867   -5.6093    0.0000 C   0  0  0
   -6.6736   -2.5497    0.0000 F   0  0  0
   -7.4496   -4.8999    0.0000 C   0  0  0
   -4.6116   -6.3632    0.0000 O   0  0  0
   -8.8685   -4.5895    0.0000 N   0  0  0
   -7.3165   -6.2967    0.0000 N   0  0  0
   -9.6002   -5.8089    0.0000 N   0  0  0
   -8.6468   -6.8509    0.0000 C   0  0  0
   -6.0971   -6.9840    0.0000 C   0  0  0
  1  2  1
  2  3  1
  2  4  1
  2  5  1
  5  6  2
  5  7  1
  6  8  1
  6  9  1
  7 10  2
  8 11  1
  8 12  2
  9 13  1
 10 14  1
 11 15  2
 13 16  1
 14 17  1
 16 18  2
 16 19  1
 20 17  1
 21 17  1
 18 22  1
 19 23  2
 20 24  1
 20 25  1
 21 26  1
 21 27  1
 22 28  2
 22 29  1
 24 30  1
 31 29  1
 29 32  1
 29 33  1
 31 34  1  6  0
 31 35  1
 32 36  1
 35 37  2
 35 38  1
 37 39  1
 38 40  1
 38 41  1
 10 12  1
 11 13  1
 23 28  1
 25 27  1
 26 30  1
 33 36  1
 39 40  2
M  END
> <COMPOUND_NAMES>
Example 675b (R) (Page No: 758)

> <Reference>
WO2019148005

> <IC50_range_nM>
<100

> <smiles>
Cn1cnnc1[C@@H](C1(COC1)c1cccc(c1)N1Cc2c(cc(CN3C4CCCC3CC4)cc2C(F)(F)F)C1=O)F

$$$$
C30H30F5N5O2
  MOLSOFT 03092310482D

 42 48  0  0  1  0  0  0  0  0999 V2000
    0.0000   -0.0000    0.0000 F   0  0  0
    1.0426    0.9760    0.0000 C   0  0  0
    1.9742   -0.0665    0.0000 F   0  0  0
    2.0851    1.9520    0.0000 F   0  0  0
    0.0665    2.0629    0.0000 C   0  0  0
   -1.3531    1.7968    0.0000 C   0  0  0
    0.4880    3.4382    0.0000 C   0  0  0
   -2.3291    2.8837    0.0000 C   0  0  0
   -2.0851    0.5767    0.0000 C   0  0  0
   -0.4880    4.5252    0.0000 C   0  0  0
   -3.6601    2.3291    0.0000 C   0  0  0
   -1.9077    4.2590    0.0000 C   0  0  0
   -3.5048    0.8873    0.0000 N   0  0  0
   -0.0665    5.9005    0.0000 C   0  0  0
   -4.9244    3.0611    0.0000 O   0  0  0
   -4.5917   -0.0444    0.0000 C   0  0  0
    1.3087    6.2110    0.0000 N   0  0  0
   -4.3255   -1.4197    0.0000 C   0  0  0
   -5.9670    0.4215    0.0000 C   0  0  0
    4.1037    6.4328    0.0000 C   0  0  2
    2.7284    6.9208    0.0000 C   0  0  1
   -5.4124   -2.3513    0.0000 C   0  0  0
   -7.0539   -0.5102    0.0000 C   0  0  0
    4.2812    7.9412    0.0000 C   0  0  0
    4.7026    5.1684    0.0000 C   0  0  0
    3.0168    8.2961    0.0000 C   0  0  0
    3.3717    5.6786    0.0000 C   0  0  0
   -6.7877   -1.8855    0.0000 C   0  0  0
   -4.9910   -4.4364    0.0000 C   0  0  0
    2.3513    9.5161    0.0000 C   0  0  0
   -6.3663   -3.9706    0.0000 C   0  0  2
   -3.8153   -5.1906    0.0000 C   0  0  0
   -5.7895   -5.6121    0.0000 C   0  0  0
    1.4197   10.6474    0.0000 F   0  0  0
   -6.6768   -2.5509    0.0000 F   0  0  0
   -7.4532   -4.9023    0.0000 C   0  0  0
   -4.6139   -6.3663    0.0000 O   0  0  0
   -8.8729   -4.5917    0.0000 N   0  0  0
   -7.3201   -6.2997    0.0000 N   0  0  0
   -9.6049   -5.8117    0.0000 N   0  0  0
   -8.6510   -6.8543    0.0000 C   0  0  0
   -6.1001   -6.9874    0.0000 C   0  0  0
  1  2  1
  2  3  1
  2  4  1
  2  5  1
  5  6  2
  5  7  1
  6  8  1
  6  9  1
  7 10  2
  8 11  1
  8 12  2
  9 13  1
 10 14  1
 11 15  2
 13 16  1
 14 17  1
 16 18  2
 16 19  1
 20 17  1  6  0
 21 17  1  1  0
 18 22  1
 19 23  2
 20 24  1
 20 25  1
 21 26  1
 21 27  1
 22 28  2
 22 29  1
 24 30  1
 31 29  1
 29 32  1
 29 33  1
 30 34  1
 31 35  1  1  0
 31 36  1
 32 37  1
 36 38  2
 36 39  1
 38 40  1
 39 41  1
 39 42  1
 10 12  1
 11 13  1
 23 28  1
 25 27  1
 26 30  1
 33 37  1
 40 41  2
M  END
> <COMPOUND_NAMES>
Example 672a (Stereo) (Page No: 755)

> <Reference>
WO2019148005

> <IC50_range_nM>
<100

> <smiles>
Cn1cnnc1[C@H](C1(COC1)c1cccc(c1)N1Cc2c(cc(CN3[C@H]4CC[C@@H]3CC(C4)F)cc2C(F)(F)F)C1=O)F

$$$$
C30H30F5N5O2
  MOLSOFT 03092310482D

 42 48  0  0  1  0  0  0  0  0999 V2000
    0.0000   -0.0000    0.0000 F   0  0  0
    1.0426    0.9760    0.0000 C   0  0  0
    1.9742   -0.0665    0.0000 F   0  0  0
    2.0851    1.9520    0.0000 F   0  0  0
    0.0665    2.0629    0.0000 C   0  0  0
   -1.3531    1.7968    0.0000 C   0  0  0
    0.4880    3.4382    0.0000 C   0  0  0
   -2.3291    2.8837    0.0000 C   0  0  0
   -2.0851    0.5767    0.0000 C   0  0  0
   -0.4880    4.5252    0.0000 C   0  0  0
   -3.6601    2.3291    0.0000 C   0  0  0
   -1.9077    4.2590    0.0000 C   0  0  0
   -3.5048    0.8873    0.0000 N   0  0  0
   -0.0665    5.9005    0.0000 C   0  0  0
   -4.9244    3.0611    0.0000 O   0  0  0
   -4.5917   -0.0444    0.0000 C   0  0  0
    1.3087    6.2110    0.0000 N   0  0  0
   -4.3255   -1.4197    0.0000 C   0  0  0
   -5.9670    0.4215    0.0000 C   0  0  0
    4.1037    6.4328    0.0000 C   0  0  2
    2.7284    6.9208    0.0000 C   0  0  1
   -5.4124   -2.3513    0.0000 C   0  0  0
   -7.0539   -0.5102    0.0000 C   0  0  0
    4.2812    7.9412    0.0000 C   0  0  0
    4.7026    5.1684    0.0000 C   0  0  0
    3.0168    8.2961    0.0000 C   0  0  0
    3.3717    5.6786    0.0000 C   0  0  0
   -6.7877   -1.8855    0.0000 C   0  0  0
   -4.9910   -4.4364    0.0000 C   0  0  0
    2.3513    9.5161    0.0000 C   0  0  0
   -6.3663   -3.9706    0.0000 C   0  0  2
   -3.8153   -5.1906    0.0000 C   0  0  0
   -5.7895   -5.6121    0.0000 C   0  0  0
    1.4197   10.6474    0.0000 F   0  0  0
   -6.6768   -2.5509    0.0000 F   0  0  0
   -7.4532   -4.9023    0.0000 C   0  0  0
   -4.6139   -6.3663    0.0000 O   0  0  0
   -8.8729   -4.5917    0.0000 N   0  0  0
   -7.3201   -6.2997    0.0000 N   0  0  0
   -9.6049   -5.8117    0.0000 N   0  0  0
   -8.6510   -6.8543    0.0000 C   0  0  0
   -6.1001   -6.9874    0.0000 C   0  0  0
  1  2  1
  2  3  1
  2  4  1
  2  5  1
  5  6  2
  5  7  1
  6  8  1
  6  9  1
  7 10  2
  8 11  1
  8 12  2
  9 13  1
 10 14  1
 11 15  2
 13 16  1
 14 17  1
 16 18  2
 16 19  1
 20 17  1  6  0
 21 17  1  1  0
 18 22  1
 19 23  2
 20 24  1
 20 25  1
 21 26  1
 21 27  1
 22 28  2
 22 29  1
 24 30  1
 31 29  1
 29 32  1
 29 33  1
 30 34  1
 31 35  1  1  0
 31 36  1
 32 37  1
 36 38  2
 36 39  1
 38 40  1
 39 41  1
 39 42  1
 10 12  1
 11 13  1
 23 28  1
 25 27  1
 26 30  1
 33 37  1
 40 41  2
M  END
> <COMPOUND_NAMES>
Example 672b (Stereo) (Page No: 755)

> <Reference>
WO2019148005

> <IC50_range_nM>
<100

> <smiles>
Cn1cnnc1[C@H](C1(COC1)c1cccc(c1)N1Cc2c(cc(CN3[C@H]4CC[C@@H]3CC(C4)F)cc2C(F)(F)F)C1=O)F

$$$$
C29H31F3N6O2
  MOLSOFT 03092310482D

 40 46  0  0  0  0  0  0  0  0999 V2000
    0.0000   -0.0000    0.0000 F   0  0  0
    1.0581    0.9812    0.0000 C   0  0  0
    2.0009   -0.0770    0.0000 F   0  0  0
    2.1163    1.9624    0.0000 F   0  0  0
    0.0770    2.0778    0.0000 C   0  0  0
   -1.3467    1.7892    0.0000 C   0  0  0
    0.5002    3.4630    0.0000 C   0  0  0
   -2.3279    2.8859    0.0000 C   0  0  0
   -2.0971    0.5579    0.0000 C   0  0  0
   -0.4810    4.5597    0.0000 C   0  0  0
   -3.6747    2.3087    0.0000 C   0  0  0
   -1.9047    4.2711    0.0000 C   0  0  0
   -3.5400    0.8850    0.0000 N   0  0  0
   -0.0577    5.9449    0.0000 N   0  0  0
   -4.9444    3.0590    0.0000 O   0  0  0
   -4.6366   -0.0577    0.0000 C   0  0  0
    0.6541    7.0992    0.0000 C   0  0  0
    0.3463    8.4075    0.0000 C   0  0  0
   -4.3480   -1.4622    0.0000 C   0  0  0
   -6.0218    0.4040    0.0000 C   0  0  0
    1.9816    7.5225    0.0000 C   0  0  3
    1.7315    8.9654    0.0000 C   0  0  3
   -5.4446   -2.4049    0.0000 C   0  0  0
   -7.1184   -0.5387    0.0000 C   0  0  0
    3.2899    6.6182    0.0000 N   0  0  0
    2.7512    8.7538    0.0000 C   0  0  0
    2.5396   10.1582    0.0000 C   0  0  0
   -6.8299   -1.9431    0.0000 C   0  0  0
   -5.1561   -3.8093    0.0000 C   0  0  0
    4.2711    5.5986    0.0000 C   0  0  0
   -3.9632   -4.5789    0.0000 C   0  0  0
   -5.9641   -5.0022    0.0000 C   0  0  0
   -6.5413   -3.3476    0.0000 C   0  0  0
   -4.7713   -5.7717    0.0000 O   0  0  0
   -7.6379   -4.2903    0.0000 C   0  0  0
   -9.0616   -3.9632    0.0000 N   0  0  0
   -7.5032   -5.7140    0.0000 N   0  0  0
   -9.8119   -5.1945    0.0000 N   0  0  0
   -8.8500   -6.2912    0.0000 C   0  0  0
   -6.2719   -6.4258    0.0000 C   0  0  0
  1  2  1
  2  3  1
  2  4  1
  2  5  1
  5  6  2
  5  7  1
  6  8  1
  6  9  1
  7 10  2
  8 11  1
  8 12  2
  9 13  1
 10 14  1
 11 15  2
 13 16  1
 14 17  1
 14 18  1
 16 19  2
 16 20  1
 21 17  1
 22 18  1
 19 23  1
 20 24  2
 21 25  1
 21 26  1
 22 27  1
 23 28  2
 23 29  1
 25 30  1
 29 31  1
 29 32  1
 29 33  1
 31 34  1
 33 35  1
 35 36  2
 35 37  1
 36 38  1
 37 39  1
 37 40  1
 10 12  1
 11 13  1
 22 25  1
 24 28  1
 26 27  1
 32 34  1
 38 39  2
M  END
> <COMPOUND_NAMES>
Example 388 (+/-) (Page No: 565)

> <Reference>
WO2019148005

> <IC50_range_nM>
<100

> <smiles>
CN1C2CCC1CN(C2)c1cc2C(N(Cc2c(c1)C(F)(F)F)c1cccc(c1)C1(Cc2nncn2C)COC1)=O

$$$$
C28H28F6N6O
  MOLSOFT 03092310482D

 41 46  0  0  1  0  0  0  0  0999 V2000
    0.0000   -0.0000    0.0000 F   0  0  0
    1.0588    0.9818    0.0000 C   0  0  0
    2.0021   -0.0770    0.0000 F   0  0  0
    2.1176    1.9636    0.0000 F   0  0  0
    0.0770    2.0791    0.0000 C   0  0  0
   -1.3476    1.7904    0.0000 C   0  0  0
    0.5005    3.4652    0.0000 C   0  0  0
   -2.3294    2.8877    0.0000 C   0  0  0
   -2.0984    0.5583    0.0000 C   0  0  0
   -0.4813    4.5625    0.0000 C   0  0  0
   -3.6770    2.3101    0.0000 C   0  0  0
   -1.9059    4.2738    0.0000 C   0  0  0
   -3.5422    0.8856    0.0000 N   0  0  0
   -0.0578    5.9486    0.0000 N   0  0  0
   -4.9476    3.0609    0.0000 O   0  0  0
   -4.6395   -0.0578    0.0000 C   0  0  0
    0.6545    7.1037    0.0000 C   0  0  0
    0.3465    8.4128    0.0000 C   0  0  0
   -4.3508   -1.4631    0.0000 C   0  0  0
   -6.0256    0.4043    0.0000 C   0  0  0
    1.9829    7.5272    0.0000 C   0  0  3
    1.7326    8.9711    0.0000 C   0  0  3
   -5.4481   -2.4064    0.0000 C   0  0  0
   -7.1230   -0.5390    0.0000 C   0  0  0
    3.2920    6.6224    0.0000 N   0  0  0
    2.7529    8.7593    0.0000 C   0  0  0
    2.5412   10.1646    0.0000 C   0  0  0
   -6.8342   -1.9444    0.0000 C   0  0  0
   -5.1593   -3.8117    0.0000 C   0  0  1
    4.2738    5.6021    0.0000 C   0  0  0
   -6.5839   -4.1005    0.0000 F   0  0  0
   -4.8706   -5.2171    0.0000 C   0  0  0
   -3.7540   -3.4845    0.0000 C   0  0  0
   -3.4652   -4.8898    0.0000 F   0  0  0
   -6.3144   -5.5059    0.0000 F   0  0  0
   -4.5818   -6.6032    0.0000 C   0  0  0
   -5.5636   -7.6620    0.0000 N   0  0  0
   -3.2727   -7.1807    0.0000 N   0  0  0
   -4.8513   -8.8941    0.0000 N   0  0  0
   -3.4460   -8.6053    0.0000 C   0  0  0
   -2.0406   -6.4299    0.0000 C   0  0  0
  1  2  1
  2  3  1
  2  4  1
  2  5  1
  5  6  2
  5  7  1
  6  8  1
  6  9  1
  7 10  2
  8 11  1
  8 12  2
  9 13  1
 10 14  1
 11 15  2
 13 16  1
 14 17  1
 14 18  1
 16 19  2
 16 20  1
 21 17  1
 22 18  1
 19 23  1
 20 24  2
 21 25  1
 21 26  1
 22 27  1
 23 28  2
 29 23  1  6  0
 25 30  1
 29 31  1
 29 32  1
 29 33  1
 32 34  1
 32 35  1
 32 36  1
 36 37  2
 36 38  1
 37 39  1
 38 40  1
 38 41  1
 10 12  1
 11 13  1
 22 25  1
 24 28  1
 26 27  1
 39 40  2
M  END
> <COMPOUND_NAMES>
Example 564 (R) (Page No: 694)

> <Reference>
WO2019148005

> <IC50_range_nM>
<100

> <smiles>
C[C@@](c1cccc(c1)N1Cc2c(cc(cc2C(F)(F)F)N2CC3CCC(C2)N3C)C1=O)(C(c1nncn1C)(F)F)F

$$$$
C29H31F3N6O2
  MOLSOFT 03092310482D

 40 46  0  0  0  0  0  0  0  0999 V2000
    0.0000   -0.0000    0.0000 F   0  0  0
    1.0479    0.9875    0.0000 C   0  0  0
    1.9951   -0.0605    0.0000 F   0  0  0
    2.0959    1.9750    0.0000 F   0  0  0
    0.0605    2.0757    0.0000 C   0  0  0
   -1.3704    1.7936    0.0000 C   0  0  0
    0.4837    3.4663    0.0000 C   0  0  0
   -2.3579    2.8818    0.0000 C   0  0  0
   -2.1160    0.5643    0.0000 C   0  0  0
   -0.5038    4.5545    0.0000 C   0  0  0
   -3.6880    2.3176    0.0000 C   0  0  0
   -1.9347    4.2724    0.0000 C   0  0  0
   -3.5469    0.8867    0.0000 N   0  0  0
   -0.0806    5.9451    0.0000 N   0  0  0
   -4.9576    3.0632    0.0000 O   0  0  0
   -4.6351   -0.0605    0.0000 C   0  0  0
    1.1286    8.5246    0.0000 C   0  0  3
    0.0202    7.5775    0.0000 C   0  0  3
   -4.3530   -1.4510    0.0000 C   0  0  0
   -6.0257    0.4031    0.0000 C   0  0  0
   -0.0806    9.4718    0.0000 C   0  0  0
    2.5393    8.4440    0.0000 C   0  0  0
   -1.0278    8.5448    0.0000 C   0  0  0
    1.4308    7.5371    0.0000 C   0  0  0
   -5.4413   -2.3982    0.0000 C   0  0  0
   -7.1139   -0.5441    0.0000 C   0  0  0
   -2.3982    8.6052    0.0000 N   0  0  0
   -6.8318   -1.9347    0.0000 C   0  0  0
   -5.1591   -3.7887    0.0000 C   0  0  0
   -3.8290    8.3836    0.0000 C   0  0  0
   -3.9701   -4.5545    0.0000 C   0  0  0
   -5.9652   -4.9777    0.0000 C   0  0  0
   -6.5497   -3.3252    0.0000 C   0  0  0
   -4.7762   -5.7435    0.0000 O   0  0  0
   -7.6379   -4.2724    0.0000 C   0  0  0
   -9.0688   -3.9499    0.0000 N   0  0  0
   -7.4968   -5.6831    0.0000 N   0  0  0
   -9.8144   -5.1793    0.0000 N   0  0  0
   -8.8269   -6.2474    0.0000 C   0  0  0
   -6.2675   -6.3884    0.0000 C   0  0  0
  1  2  1
  2  3  1
  2  4  1
  2  5  1
  5  6  2
  5  7  1
  6  8  1
  6  9  1
  7 10  2
  8 11  1
  8 12  2
  9 13  1
 10 14  1
 11 15  2
 13 16  1
 17 14  1
 18 14  1
 16 19  2
 16 20  1
 17 21  1
 17 22  1
 18 23  1
 18 24  1
 19 25  1
 20 26  2
 21 27  1
 25 28  2
 25 29  1
 27 30  1
 29 31  1
 29 32  1
 29 33  1
 31 34  1
 33 35  1
 35 36  2
 35 37  1
 36 38  1
 37 39  1
 37 40  1
 10 12  1
 11 13  1
 22 24  1
 23 27  1
 26 28  1
 32 34  1
 38 39  2
M  END
> <COMPOUND_NAMES>
Example 386 (+/-) (Page No: 564)

> <Reference>
WO2019148005

> <IC50_range_nM>
<100

> <smiles>
CN1CC2CCC(C1)N2c1cc2C(N(Cc2c(c1)C(F)(F)F)c1cccc(c1)C1(Cc2nncn2C)COC1)=O

$$$$
C28H28F6N6O
  MOLSOFT 03092310482D

 41 46  0  0  1  0  0  0  0  0999 V2000
    0.0000   -0.0000    0.0000 F   0  0  0
    1.0491    0.9886    0.0000 C   0  0  0
    1.9973   -0.0605    0.0000 F   0  0  0
    2.0981    1.9771    0.0000 F   0  0  0
    0.0605    2.0780    0.0000 C   0  0  0
   -1.3719    1.7955    0.0000 C   0  0  0
    0.4842    3.4700    0.0000 C   0  0  0
   -2.3604    2.8850    0.0000 C   0  0  0
   -2.1183    0.5649    0.0000 C   0  0  0
   -0.5044    4.5594    0.0000 C   0  0  0
   -3.6919    2.3201    0.0000 C   0  0  0
   -1.9368    4.2770    0.0000 C   0  0  0
   -3.5507    0.8877    0.0000 N   0  0  0
   -0.0807    5.9515    0.0000 N   0  0  0
   -4.9629    3.0665    0.0000 O   0  0  0
   -4.6401   -0.0605    0.0000 C   0  0  0
    1.1298    8.5338    0.0000 C   0  0  3
    0.0202    7.5856    0.0000 C   0  0  3
   -4.3577   -1.4526    0.0000 C   0  0  0
   -6.0322    0.4035    0.0000 C   0  0  0
   -0.0807    9.4820    0.0000 C   0  0  0
    2.5420    8.4531    0.0000 C   0  0  0
   -1.0289    8.5540    0.0000 C   0  0  0
    1.4324    7.5453    0.0000 C   0  0  0
   -5.4471   -2.4008    0.0000 C   0  0  0
   -7.1216   -0.5447    0.0000 C   0  0  0
   -2.4008    8.6145    0.0000 N   0  0  0
   -6.8392   -1.9368    0.0000 C   0  0  0
   -5.1647   -3.7928    0.0000 C   0  0  1
   -3.8332    8.3926    0.0000 C   0  0  0
   -6.5971   -4.0753    0.0000 F   0  0  0
   -4.8822   -5.1848    0.0000 C   0  0  0
   -3.7726   -3.4700    0.0000 C   0  0  0
   -3.4902   -4.8621    0.0000 F   0  0  0
   -6.3146   -5.4673    0.0000 F   0  0  0
   -4.5998   -6.5769    0.0000 C   0  0  0
   -5.5883   -7.6260    0.0000 N   0  0  0
   -3.3086   -7.1418    0.0000 N   0  0  0
   -4.8822   -8.8566    0.0000 N   0  0  0
   -3.4700   -8.5540    0.0000 C   0  0  0
   -2.0780   -6.3953    0.0000 C   0  0  0
  1  2  1
  2  3  1
  2  4  1
  2  5  1
  5  6  2
  5  7  1
  6  8  1
  6  9  1
  7 10  2
  8 11  1
  8 12  2
  9 13  1
 10 14  1
 11 15  2
 13 16  1
 17 14  1
 18 14  1
 16 19  2
 16 20  1
 17 21  1
 17 22  1
 18 23  1
 18 24  1
 19 25  1
 20 26  2
 21 27  1
 25 28  2
 29 25  1  6  0
 27 30  1
 29 31  1
 29 32  1
 29 33  1
 32 34  1
 32 35  1
 32 36  1
 36 37  2
 36 38  1
 37 39  1
 38 40  1
 38 41  1
 10 12  1
 11 13  1
 22 24  1
 23 27  1
 26 28  1
 39 40  2
M  END
> <COMPOUND_NAMES>
Example 445 (R) (Page No: 595)

> <Reference>
WO2019148005

> <IC50_range_nM>
<100

> <smiles>
C[C@@](c1cccc(c1)N1Cc2c(cc(cc2C(F)(F)F)N2C3CCC2CN(C)C3)C1=O)(C(c1nncn1C)(F)F)F

$$$$
C29H28F3N5O2
  MOLSOFT 03092310482D

 39 45  0  0  0  0  0  0  0  0999 V2000
    0.0000   -0.0000    0.0000 F   0  0  0
    1.1026    1.0088    0.0000 C   0  0  0
    2.0996   -0.0938    0.0000 F   0  0  0
    2.2052    2.0293    0.0000 F   0  0  0
    0.0821    2.1348    0.0000 C   0  0  0
   -1.3958    1.8298    0.0000 C   0  0  0
    0.5278    3.5659    0.0000 C   0  0  0
   -2.4163    2.9559    0.0000 C   0  0  0
   -2.1583    0.5396    0.0000 C   0  0  0
   -0.4927    4.6919    0.0000 C   0  0  0
   -3.8005    2.3577    0.0000 C   0  0  0
   -1.9706    4.3869    0.0000 C   0  0  0
   -3.6362    0.8680    0.0000 N   0  0  0
   -0.0469    6.1230    0.0000 C   0  0  0
   -5.1142    3.1201    0.0000 O   0  0  0
   -4.7623   -0.1290    0.0000 C   0  0  0
   -0.5630    7.5423    0.0000 C   0  0  0
    1.1730    6.9792    0.0000 C   0  0  0
   -4.4573   -1.5835    0.0000 C   0  0  0
   -6.1933    0.3402    0.0000 C   0  0  0
    0.6569    8.3985    0.0000 N   0  0  0
    1.8064    8.3399    0.0000 C   0  0  0
    2.2990    6.0174    0.0000 C   0  0  0
   -5.5834   -2.5688    0.0000 C   0  0  0
   -7.3194   -0.6569    0.0000 C   0  0  0
    1.2903    9.7592    0.0000 C   0  0  0
    1.7829    7.4367    0.0000 C   0  0  0
   -7.0261   -2.0996    0.0000 C   0  0  0
   -5.2784   -4.0233    0.0000 C   0  0  0
   -4.0351   -4.8327    0.0000 C   0  0  0
   -6.1112   -5.2667    0.0000 C   0  0  0
   -6.7094   -3.5541    0.0000 C   0  0  0
   -4.8679   -6.0760    0.0000 O   0  0  0
   -7.8355   -4.5512    0.0000 C   0  0  0
   -9.3135   -4.2227    0.0000 N   0  0  0
   -7.6947   -6.0291    0.0000 N   0  0  0
  -10.0759   -5.5130    0.0000 N   0  0  0
   -9.0789   -6.6273    0.0000 C   0  0  0
   -6.4045   -6.7681    0.0000 C   0  0  0
  1  2  1
  2  3  1
  2  4  1
  2  5  1
  5  6  2
  5  7  1
  6  8  1
  6  9  1
  7 10  2
  8 11  1
  8 12  2
  9 13  1
 10 14  1
 11 15  2
 13 16  1
 14 17  2
 14 18  1
 16 19  2
 16 20  1
 17 21  1
 18 22  1
 18 23  1
 19 24  1
 20 25  2
 21 26  1
 21 27  1
 24 28  2
 24 29  1
 29 30  1
 29 31  1
 29 32  1
 30 33  1
 32 34  1
 34 35  2
 34 36  1
 35 37  1
 36 38  1
 36 39  1
 10 12  1
 11 13  1
 22 26  1
 23 27  1
 25 28  1
 31 33  1
 37 38  2
M  END
> <COMPOUND_NAMES>
Example 559 (Page No: 691)

> <Reference>
WO2019148005

> <IC50_range_nM>
101-300

> <smiles>
Cn1cnnc1CC1(COC1)c1cccc(c1)N1Cc2c(cc(cc2C(F)(F)F)C2=CN3CCC2CC3)C1=O

$$$$
C29H30F3N5O2
  MOLSOFT 03092310482D

 39 45  0  0  1  0  0  0  0  0999 V2000
    0.0000   -0.0000    0.0000 F   0  0  0
    1.1026    1.0088    0.0000 C   0  0  0
    2.0996   -0.0938    0.0000 F   0  0  0
    2.2052    2.0293    0.0000 F   0  0  0
    0.0821    2.1348    0.0000 C   0  0  0
   -1.3958    1.8298    0.0000 C   0  0  0
    0.5278    3.5659    0.0000 C   0  0  0
   -2.4163    2.9559    0.0000 C   0  0  0
   -2.1583    0.5396    0.0000 C   0  0  0
   -0.4927    4.6919    0.0000 C   0  0  0
   -3.8005    2.3577    0.0000 C   0  0  0
   -1.9706    4.3869    0.0000 C   0  0  0
   -3.6362    0.8680    0.0000 N   0  0  0
   -0.0469    6.1230    0.0000 C   0  0  2
   -5.1142    3.1201    0.0000 O   0  0  0
   -4.7623   -0.1290    0.0000 C   0  0  0
    1.1730    6.9792    0.0000 C   0  0  0
   -0.5630    7.5423    0.0000 C   0  0  0
   -4.4573   -1.5835    0.0000 C   0  0  0
   -6.1933    0.3402    0.0000 C   0  0  0
    1.8064    8.3399    0.0000 C   0  0  0
    2.2990    6.0174    0.0000 C   0  0  0
    0.6569    8.3985    0.0000 N   0  0  0
   -5.5834   -2.5688    0.0000 C   0  0  0
   -7.3194   -0.6569    0.0000 C   0  0  0
    1.2903    9.7592    0.0000 C   0  0  0
    1.7829    7.4367    0.0000 C   0  0  0
   -7.0261   -2.0996    0.0000 C   0  0  0
   -5.2784   -4.0233    0.0000 C   0  0  0
   -4.0351   -4.8327    0.0000 C   0  0  0
   -6.1112   -5.2667    0.0000 C   0  0  0
   -6.7094   -3.5541    0.0000 C   0  0  0
   -4.8679   -6.0760    0.0000 O   0  0  0
   -7.8355   -4.5512    0.0000 C   0  0  0
   -9.3135   -4.2227    0.0000 N   0  0  0
   -7.6947   -6.0291    0.0000 N   0  0  0
  -10.0759   -5.5130    0.0000 N   0  0  0
   -9.0789   -6.6273    0.0000 C   0  0  0
   -6.4045   -6.7681    0.0000 C   0  0  0
  1  2  1
  2  3  1
  2  4  1
  2  5  1
  5  6  2
  5  7  1
  6  8  1
  6  9  1
  7 10  2
  8 11  1
  8 12  2
  9 13  1
 14 10  1  1  0
 11 15  2
 13 16  1
 14 17  1
 14 18  1
 16 19  2
 16 20  1
 17 21  1
 17 22  1
 18 23  1
 19 24  1
 20 25  2
 21 26  1
 22 27  1
 24 28  2
 24 29  1
 29 30  1
 29 31  1
 29 32  1
 30 33  1
 32 34  1
 34 35  2
 34 36  1
 35 37  1
 36 38  1
 36 39  1
 10 12  1
 11 13  1
 23 26  1
 23 27  1
 25 28  1
 31 33  1
 37 38  2
M  END
> <COMPOUND_NAMES>
Example 560 (Page No: 692)

> <Reference>
WO2019148005

> <IC50_range_nM>
<100

> <smiles>
Cn1cnnc1CC1(COC1)c1cccc(c1)N1Cc2c(cc(cc2C(F)(F)F)[C@H]2CN3CCC2CC3)C1=O

$$$$
C28H28F3N5O3
  MOLSOFT 03092310482D

 39 45  0  0  0  0  0  0  0  0999 V2000
    0.0000   -0.0000    0.0000 F   0  0  0
    1.0871    0.9946    0.0000 C   0  0  0
    2.0586   -0.0925    0.0000 F   0  0  0
    2.1743    1.9892    0.0000 F   0  0  0
    0.0925    2.1049    0.0000 C   0  0  0
   -1.3647    1.8042    0.0000 C   0  0  0
    0.5320    3.5159    0.0000 C   0  0  0
   -2.3593    2.9145    0.0000 C   0  0  0
   -2.1165    0.5320    0.0000 C   0  0  0
   -0.4626    4.6261    0.0000 C   0  0  0
   -3.7240    2.3246    0.0000 C   0  0  0
   -1.9199    4.3254    0.0000 C   0  0  0
   -3.5737    0.8558    0.0000 N   0  0  0
   -0.0231    6.0371    0.0000 C   0  0  0
   -5.0194    3.0764    0.0000 O   0  0  0
   -4.6840   -0.1157    0.0000 C   0  0  0
    1.4110    6.3609    0.0000 N   0  0  0
   -4.3833   -1.5498    0.0000 C   0  0  0
   -6.0949    0.3470    0.0000 C   0  0  0
    1.6654    7.8182    0.0000 C   0  0  3
    2.2321    5.1582    0.0000 C   0  0  0
   -5.4935   -2.5212    0.0000 C   0  0  0
   -7.2052   -0.6245    0.0000 C   0  0  0
    2.6138    8.9516    0.0000 C   0  0  0
    0.1850    7.7141    0.0000 C   0  0  0
    2.4866    6.6154    0.0000 C   0  0  3
   -6.9045   -2.0586    0.0000 C   0  0  0
   -5.2044   -3.9554    0.0000 C   0  0  0
    3.4349    7.7488    0.0000 O   0  0  0
   -3.9785   -4.7418    0.0000 C   0  0  0
   -6.0140   -5.1813    0.0000 C   0  0  0
   -6.6154   -3.4927    0.0000 C   0  0  0
   -4.7881   -5.9677    0.0000 O   0  0  0
   -7.7257   -4.4642    0.0000 C   0  0  0
   -9.1829   -4.1520    0.0000 N   0  0  0
   -7.5869   -5.9215    0.0000 N   0  0  0
   -9.9346   -5.4242    0.0000 N   0  0  0
   -8.9516   -6.5113    0.0000 C   0  0  0
   -6.3147   -6.6501    0.0000 C   0  0  0
  1  2  1
  2  3  1
  2  4  1
  2  5  1
  5  6  2
  5  7  1
  6  8  1
  6  9  1
  7 10  2
  8 11  1
  8 12  2
  9 13  1
 10 14  1
 11 15  2
 13 16  1
 14 17  1
 16 18  2
 16 19  1
 20 17  1
 17 21  1
 18 22  1
 19 23  2
 20 24  1
 20 25  1
 26 21  1
 22 27  2
 22 28  1
 24 29  1
 28 30  1
 28 31  1
 28 32  1
 30 33  1
 32 34  1
 34 35  2
 34 36  1
 35 37  1
 36 38  1
 36 39  1
 10 12  1
 11 13  1
 23 27  1
 26 25  1
 26 29  1
 31 33  1
 37 38  2
M  END
> <COMPOUND_NAMES>
Example 619 (+/-) (Page No: 727)

> <Reference>
WO2019148005

> <IC50_range_nM>
<100

> <smiles>
Cn1cnnc1CC1(COC1)c1cccc(c1)N1Cc2c(cc(CN3CC4CC3CO4)cc2C(F)(F)F)C1=O

$$$$
C28H29F3N6O2
  MOLSOFT 03092310482D

 39 45  0  0  1  0  0  0  0  0999 V2000
    0.0000   -0.0000    0.0000 F   0  0  0
   -0.0186   -1.4504    0.0000 C   0  0  0
    1.4318   -1.4318    0.0000 F   0  0  0
   -1.5062   -1.4318    0.0000 F   0  0  0
   -0.0372   -2.9008    0.0000 C   0  0  0
   -1.3388   -3.6260    0.0000 C   0  0  0
    1.2273   -3.6260    0.0000 C   0  0  0
   -1.3574   -5.0764    0.0000 C   0  0  0
   -2.7706   -3.1425    0.0000 C   0  0  0
    1.2087   -5.0764    0.0000 C   0  0  0
   -2.7892   -5.5227    0.0000 C   0  0  0
   -0.0930   -5.8016    0.0000 C   0  0  0
   -3.6632   -4.3140    0.0000 N   0  0  0
    2.4731   -5.8016    0.0000 N   0  0  0
   -3.2541   -6.9173    0.0000 O   0  0  0
   -5.1508   -4.2954    0.0000 C   0  0  0
    3.3471   -6.9545    0.0000 C   0  0  2
    3.9235   -5.9690    0.0000 C   0  0  0
   -5.9132   -5.5599    0.0000 C   0  0  0
   -5.9132   -2.9938    0.0000 C   0  0  0
    3.5144   -8.4049    0.0000 C   0  0  0
    5.6901   -5.9504    0.0000 C   0  0  0
    4.7975   -7.1219    0.0000 C   0  0  1
   -7.4008   -5.5413    0.0000 C   0  0  0
   -7.4008   -2.9752    0.0000 C   0  0  0
    4.9649   -8.5723    0.0000 N   0  0  0
   -8.1632   -4.2396    0.0000 C   0  0  0
   -8.1632   -6.8058    0.0000 C   0  0  0
    5.9876   -9.5950    0.0000 C   0  0  0
   -7.7913   -8.2190    0.0000 C   0  0  0
   -9.6136   -7.1776    0.0000 C   0  0  0
   -8.9256   -5.5041    0.0000 C   0  0  0
   -9.2417   -8.5909    0.0000 O   0  0  0
  -10.4132   -5.4855    0.0000 C   0  0  0
  -11.3057   -6.6570    0.0000 N   0  0  0
  -11.3057   -4.2768    0.0000 N   0  0  0
  -12.7375   -6.1735    0.0000 N   0  0  0
  -12.7375   -4.7231    0.0000 C   0  0  0
  -10.8594   -2.8450    0.0000 C   0  0  0
  1  2  1
  2  3  1
  2  4  1
  2  5  1
  5  6  2
  5  7  1
  6  8  1
  6  9  1
  7 10  2
  8 11  1
  8 12  2
  9 13  1
 10 14  1
 11 15  2
 13 16  1
 17 14  1  1  0
 14 18  1
 16 19  2
 16 20  1
 17 21  1
 17 22  1
 23 18  1
 19 24  1
 20 25  2
 21 26  1
 24 27  2
 24 28  1
 26 29  1
 28 30  1
 28 31  1
 28 32  1
 30 33  1
 32 34  1
 34 35  2
 34 36  1
 35 37  1
 36 38  1
 36 39  1
 10 12  1
 11 13  1
 23 22  1
 23 26  1  1  0
 25 27  1
 31 33  1
 37 38  2
M  END
> <COMPOUND_NAMES>
Example 569 (Stereo) (Page No: 697)

> <Reference>
WO2019148005

> <IC50_range_nM>
<100

> <smiles>
CN1C[C@@H]2C[C@@H]1CN2c1cc2C(N(Cc2c(c1)C(F)(F)F)c1cccc(c1)C1(Cc2nncn2C)COC1)=O

$$$$
C27H26F6N6O
  MOLSOFT 03092310482D

 40 45  0  0  1  0  0  0  0  0999 V2000
    0.0000   -0.0000    0.0000 F   0  0  0
    1.1280    1.0320    0.0000 C   0  0  0
    2.1480   -0.0960    0.0000 F   0  0  0
    2.2560    2.0760    0.0000 F   0  0  0
    0.0840    2.1840    0.0000 C   0  0  0
   -1.4280    1.8720    0.0000 C   0  0  0
    0.5400    3.6480    0.0000 C   0  0  0
   -2.4720    3.0240    0.0000 C   0  0  0
   -2.2080    0.5520    0.0000 C   0  0  0
   -0.5040    4.7999    0.0000 C   0  0  0
   -3.8880    2.4120    0.0000 C   0  0  0
   -2.0160    4.4880    0.0000 C   0  0  0
   -3.7200    0.8880    0.0000 N   0  0  0
   -0.0480    6.2639    0.0000 N   0  0  0
   -5.2319    3.1920    0.0000 O   0  0  0
   -4.8719   -0.1320    0.0000 C   0  0  0
    0.7080    7.7159    0.0000 C   0  0  3
    0.0240    7.4519    0.0000 C   0  0  3
   -4.5600   -1.6200    0.0000 C   0  0  0
   -6.3359    0.3480    0.0000 C   0  0  0
    1.9080    7.8239    0.0000 C   0  0  0
   -0.4560    8.7359    0.0000 C   0  0  0
    1.4400    7.4399    0.0000 C   0  0  0
   -5.7119   -2.6280    0.0000 C   0  0  0
   -7.4879   -0.6720    0.0000 C   0  0  0
    2.3280    6.6959    0.0000 N   0  0  0
   -7.1879   -2.1480    0.0000 C   0  0  0
   -5.3999   -4.1160    0.0000 C   0  0  1
    3.2040    5.4599    0.0000 C   0  0  0
   -6.9119   -4.4280    0.0000 F   0  0  0
   -5.0879   -5.6039    0.0000 C   0  0  0
   -3.9120   -3.7800    0.0000 C   0  0  0
   -3.6000   -5.2679    0.0000 F   0  0  0
   -6.5999   -5.9159    0.0000 F   0  0  0
   -4.7759   -7.0919    0.0000 C   0  0  0
   -5.8199   -8.2199    0.0000 N   0  0  0
   -3.3840   -7.7039    0.0000 N   0  0  0
   -5.0639   -9.5399    0.0000 N   0  0  0
   -3.5520   -9.2159    0.0000 C   0  0  0
   -2.0640   -6.9239    0.0000 C   0  0  0
  1  2  1
  2  3  1
  2  4  1
  2  5  1
  5  6  2
  5  7  1
  6  8  1
  6  9  1
  7 10  2
  8 11  1
  8 12  2
  9 13  1
 10 14  1
 11 15  2
 13 16  1
 17 14  1
 18 14  1
 16 19  2
 16 20  1
 17 21  1
 17 22  1
 18 23  1
 19 24  1
 20 25  2
 21 26  1
 24 27  2
 28 24  1  6  0
 26 29  1
 28 30  1
 28 31  1
 28 32  1
 31 33  1
 31 34  1
 31 35  1
 35 36  2
 35 37  1
 36 38  1
 37 39  1
 37 40  1
 10 12  1
 11 13  1
 18 22  1
 23 26  1
 25 27  1
 38 39  2
M  END
> <COMPOUND_NAMES>
Example 566 (R) (Page No: 695)

> <Reference>
WO2019148005

> <IC50_range_nM>
<100

> <smiles>
C[C@@](c1cccc(c1)N1Cc2c(cc(cc2C(F)(F)F)N2C3CC2CN(C)C3)C1=O)(C(c1nncn1C)(F)F)F

$$$$
C27H26F6N6O
  MOLSOFT 03092310482D

 40 45  0  0  1  0  0  0  0  0999 V2000
    0.0000   -0.0000    0.0000 F   0  0  0
   -0.0186   -1.4522    0.0000 C   0  0  0
    1.4336   -1.4336    0.0000 F   0  0  0
   -1.5080   -1.4336    0.0000 F   0  0  0
   -0.0372   -2.9044    0.0000 C   0  0  0
   -1.3405   -3.6305    0.0000 C   0  0  0
    1.2288   -3.6305    0.0000 C   0  0  0
   -1.3591   -5.0827    0.0000 C   0  0  0
   -2.7740   -3.1464    0.0000 C   0  0  0
    1.2102   -5.0827    0.0000 C   0  0  0
   -2.7927   -5.5295    0.0000 C   0  0  0
   -0.0931   -5.8087    0.0000 C   0  0  0
   -3.6677   -4.3193    0.0000 N   0  0  0
    2.4762   -5.8087    0.0000 N   0  0  0
   -3.2581   -6.9258    0.0000 O   0  0  0
   -5.1571   -4.3007    0.0000 C   0  0  0
    3.3512   -6.9630    0.0000 C   0  0  1
    3.9284   -5.9763    0.0000 C   0  0  0
   -5.9205   -5.5667    0.0000 C   0  0  0
   -5.9205   -2.9975    0.0000 C   0  0  0
    3.5188   -8.4152    0.0000 C   0  0  0
    5.6970   -5.9577    0.0000 C   0  0  0
    4.8034   -7.1306    0.0000 C   0  0  2
   -7.4099   -5.5481    0.0000 C   0  0  0
   -7.4099   -2.9788    0.0000 C   0  0  0
    4.9709   -8.5828    0.0000 N   0  0  0
   -8.1732   -4.2449    0.0000 C   0  0  0
   -8.1732   -6.8141    0.0000 C   0  0  1
    5.9949   -9.6068    0.0000 C   0  0  0
   -6.9072   -7.5402    0.0000 F   0  0  0
   -8.9365   -8.0801    0.0000 C   0  0  0
   -9.4765   -6.0508    0.0000 C   0  0  0
  -10.2398   -7.3168    0.0000 F   0  0  0
   -7.6705   -8.8062    0.0000 F   0  0  0
   -9.6999   -9.3461    0.0000 C   0  0  0
   -9.1227  -10.6866    0.0000 N   0  0  0
  -11.1893   -9.4765    0.0000 N   0  0  0
  -10.2398  -11.6547    0.0000 N   0  0  0
  -11.5244  -10.9100    0.0000 C   0  0  0
  -12.1946   -8.3594    0.0000 C   0  0  0
  1  2  1
  2  3  1
  2  4  1
  2  5  1
  5  6  2
  5  7  1
  6  8  1
  6  9  1
  7 10  2
  8 11  1
  8 12  2
  9 13  1
 10 14  1
 11 15  2
 13 16  1
 17 14  1  6  0
 14 18  1
 16 19  2
 16 20  1
 17 21  1
 17 22  1
 23 18  1
 19 24  1
 20 25  2
 21 26  1
 24 27  2
 28 24  1  1  0
 26 29  1
 28 30  1
 28 31  1
 28 32  1
 31 33  1
 31 34  1
 31 35  1
 35 36  2
 35 37  1
 36 38  1
 37 39  1
 37 40  1
 10 12  1
 11 13  1
 23 22  1
 23 26  1  6  0
 25 27  1
 38 39  2
M  END
> <COMPOUND_NAMES>
Example 562 (Stereo) (Page No: 693)

> <Reference>
WO2019148005

> <IC50_range_nM>
<100

> <smiles>
C[C@@](c1cccc(c1)N1Cc2c(cc(cc2C(F)(F)F)N2C[C@@H]3C[C@@H]2CN3C)C1=O)(C(c1nncn1C)(F)F)F

$$$$
C27H26F6N6O
  MOLSOFT 03092310482D

 40 45  0  0  1  0  0  0  0  0999 V2000
    0.0000   -0.0000    0.0000 F   0  0  0
   -0.0186   -1.4522    0.0000 C   0  0  0
    1.4336   -1.4336    0.0000 F   0  0  0
   -1.5080   -1.4336    0.0000 F   0  0  0
   -0.0372   -2.9044    0.0000 C   0  0  0
   -1.3405   -3.6305    0.0000 C   0  0  0
    1.2288   -3.6305    0.0000 C   0  0  0
   -1.3591   -5.0827    0.0000 C   0  0  0
   -2.7740   -3.1464    0.0000 C   0  0  0
    1.2102   -5.0827    0.0000 C   0  0  0
   -2.7927   -5.5295    0.0000 C   0  0  0
   -0.0931   -5.8087    0.0000 C   0  0  0
   -3.6677   -4.3193    0.0000 N   0  0  0
    2.4762   -5.8087    0.0000 N   0  0  0
   -3.2581   -6.9258    0.0000 O   0  0  0
   -5.1571   -4.3007    0.0000 C   0  0  0
    3.3512   -6.9630    0.0000 C   0  0  2
    3.9284   -5.9763    0.0000 C   0  0  0
   -5.9205   -5.5667    0.0000 C   0  0  0
   -5.9205   -2.9975    0.0000 C   0  0  0
    3.5188   -8.4152    0.0000 C   0  0  0
    5.6970   -5.9577    0.0000 C   0  0  0
    4.8034   -7.1306    0.0000 C   0  0  1
   -7.4099   -5.5481    0.0000 C   0  0  0
   -7.4099   -2.9788    0.0000 C   0  0  0
    4.9709   -8.5828    0.0000 N   0  0  0
   -8.1732   -4.2449    0.0000 C   0  0  0
   -8.1732   -6.8141    0.0000 C   0  0  1
    5.9949   -9.6068    0.0000 C   0  0  0
   -6.9072   -7.5402    0.0000 F   0  0  0
   -8.9365   -8.0801    0.0000 C   0  0  0
   -9.4765   -6.0508    0.0000 C   0  0  0
  -10.2398   -7.3168    0.0000 F   0  0  0
   -7.6705   -8.8062    0.0000 F   0  0  0
   -9.6999   -9.3461    0.0000 C   0  0  0
   -9.1227  -10.6866    0.0000 N   0  0  0
  -11.1893   -9.4765    0.0000 N   0  0  0
  -10.2398  -11.6547    0.0000 N   0  0  0
  -11.5244  -10.9100    0.0000 C   0  0  0
  -12.1946   -8.3594    0.0000 C   0  0  0
  1  2  1
  2  3  1
  2  4  1
  2  5  1
  5  6  2
  5  7  1
  6  8  1
  6  9  1
  7 10  2
  8 11  1
  8 12  2
  9 13  1
 10 14  1
 11 15  2
 13 16  1
 17 14  1  1  0
 14 18  1
 16 19  2
 16 20  1
 17 21  1
 17 22  1
 23 18  1
 19 24  1
 20 25  2
 21 26  1
 24 27  2
 28 24  1  1  0
 26 29  1
 28 30  1
 28 31  1
 28 32  1
 31 33  1
 31 34  1
 31 35  1
 35 36  2
 35 37  1
 36 38  1
 37 39  1
 37 40  1
 10 12  1
 11 13  1
 23 22  1
 23 26  1  1  0
 25 27  1
 38 39  2
M  END
> <COMPOUND_NAMES>
Example 563 (Stereo) (Page No: 694)

> <Reference>
WO2019148005

> <IC50_range_nM>
<100

> <smiles>
C[C@@](c1cccc(c1)N1Cc2c(cc(cc2C(F)(F)F)N2C[C@H]3C[C@H]2CN3C)C1=O)(C(c1nncn1C)(F)F)F

$$$$
C29H31F3N6O2
  MOLSOFT 03092310482D

 40 46  0  0  0  0  0  0  0  0999 V2000
    0.0000   -0.0000    0.0000 F   0  0  0
    1.1028    1.0089    0.0000 C   0  0  0
    2.0999   -0.0939    0.0000 F   0  0  0
    2.2055    2.0295    0.0000 F   0  0  0
    0.0821    2.1351    0.0000 C   0  0  0
   -1.3960    1.8301    0.0000 C   0  0  0
    0.5279    3.5664    0.0000 C   0  0  0
   -2.4167    2.9563    0.0000 C   0  0  0
   -2.1586    0.5396    0.0000 C   0  0  0
   -0.4927    4.6926    0.0000 C   0  0  0
   -3.8010    2.3580    0.0000 C   0  0  0
   -1.9709    4.3876    0.0000 C   0  0  0
   -3.6367    0.8681    0.0000 N   0  0  0
   -0.0469    6.1238    0.0000 N   0  0  0
   -5.1149    3.1206    0.0000 O   0  0  0
   -4.7630   -0.1290    0.0000 C   0  0  0
    1.1731    6.9802    0.0000 C   0  0  3
   -0.5631    7.5433    0.0000 C   0  0  0
   -4.4579   -1.5837    0.0000 C   0  0  0
   -6.1942    0.3402    0.0000 C   0  0  0
    2.2994    6.0182    0.0000 C   0  0  0
    1.8066    8.3410    0.0000 C   0  0  0
    0.6570    8.3997    0.0000 C   0  0  3
   -5.5842   -2.5692    0.0000 C   0  0  0
   -7.3204   -0.6570    0.0000 C   0  0  0
    1.7832    7.4377    0.0000 N   0  0  0
    1.2905    9.7605    0.0000 C   0  0  0
   -7.0271   -2.0999    0.0000 C   0  0  0
   -5.2791   -4.0239    0.0000 C   0  0  0
    3.0032    8.2941    0.0000 C   0  0  0
   -4.0356   -4.8333    0.0000 C   0  0  0
   -6.1121   -5.2674    0.0000 C   0  0  0
   -6.7104   -3.5546    0.0000 C   0  0  0
   -4.8685   -6.0769    0.0000 O   0  0  0
   -7.8366   -4.5518    0.0000 C   0  0  0
   -9.3148   -4.2233    0.0000 N   0  0  0
   -7.6958   -6.0300    0.0000 N   0  0  0
  -10.0773   -5.5138    0.0000 N   0  0  0
   -9.0801   -6.6283    0.0000 C   0  0  0
   -6.4054   -6.7690    0.0000 C   0  0  0
  1  2  1
  2  3  1
  2  4  1
  2  5  1
  5  6  2
  5  7  1
  6  8  1
  6  9  1
  7 10  2
  8 11  1
  8 12  2
  9 13  1
 10 14  1
 11 15  2
 13 16  1
 17 14  1
 14 18  1
 16 19  2
 16 20  1
 17 21  1
 17 22  1
 23 18  1
 19 24  1
 20 25  2
 21 26  1
 22 27  1
 24 28  2
 24 29  1
 26 30  1
 29 31  1
 29 32  1
 29 33  1
 31 34  1
 33 35  1
 35 36  2
 35 37  1
 36 38  1
 37 39  1
 37 40  1
 10 12  1
 11 13  1
 23 26  1
 23 27  1
 25 28  1
 32 34  1
 38 39  2
M  END
> <COMPOUND_NAMES>
Example 387 (+/-) (Page No: 564)

> <Reference>
WO2019148005

> <IC50_range_nM>
<100

> <smiles>
CN1CC2CCC1CN2c1cc2C(N(Cc2c(c1)C(F)(F)F)c1cccc(c1)C1(Cc2nncn2C)COC1)=O

$$$$
C28H28F6N6O
  MOLSOFT 03092310482D

 41 46  0  0  1  0  0  0  0  0999 V2000
    0.0000   -0.0000    0.0000 F   0  0  0
    1.1029    1.0091    0.0000 C   0  0  0
    2.1003   -0.0939    0.0000 F   0  0  0
    2.2059    2.0299    0.0000 F   0  0  0
    0.0821    2.1355    0.0000 C   0  0  0
   -1.3963    1.8304    0.0000 C   0  0  0
    0.5280    3.5670    0.0000 C   0  0  0
   -2.4171    2.9568    0.0000 C   0  0  0
   -2.1590    0.5397    0.0000 C   0  0  0
   -0.4928    4.6934    0.0000 C   0  0  0
   -3.8016    2.3584    0.0000 C   0  0  0
   -1.9712    4.3883    0.0000 C   0  0  0
   -3.6374    0.8683    0.0000 N   0  0  0
   -0.0469    6.1249    0.0000 N   0  0  0
   -5.1158    3.1211    0.0000 O   0  0  0
   -4.7638   -0.1291    0.0000 C   0  0  0
    1.1733    6.9814    0.0000 C   0  0  3
   -0.5632    7.5446    0.0000 C   0  0  0
   -4.4587   -1.5840    0.0000 C   0  0  0
   -6.1953    0.3403    0.0000 C   0  0  0
    2.2998    6.0193    0.0000 C   0  0  0
    1.8070    8.3425    0.0000 C   0  0  0
    0.6571    8.4012    0.0000 C   0  0  3
   -5.5851   -2.5696    0.0000 C   0  0  0
   -7.3217   -0.6571    0.0000 C   0  0  0
    1.7835    7.4390    0.0000 N   0  0  0
    1.2907    9.7622    0.0000 C   0  0  0
   -7.0283   -2.1003    0.0000 C   0  0  0
   -5.2801   -4.0246    0.0000 C   0  0  1
    3.0038    8.2956    0.0000 C   0  0  0
   -6.7585   -4.3296    0.0000 F   0  0  0
   -4.9750   -5.4795    0.0000 C   0  0  0
   -3.8251   -3.6960    0.0000 C   0  0  0
   -3.5200   -5.1510    0.0000 F   0  0  0
   -6.4534   -5.7846    0.0000 F   0  0  0
   -4.6699   -6.9345    0.0000 C   0  0  0
   -5.6907   -8.0374    0.0000 N   0  0  0
   -3.3088   -7.5329    0.0000 N   0  0  0
   -4.9515   -9.3281    0.0000 N   0  0  0
   -3.4731   -9.0113    0.0000 C   0  0  0
   -2.0182   -6.7702    0.0000 C   0  0  0
  1  2  1
  2  3  1
  2  4  1
  2  5  1
  5  6  2
  5  7  1
  6  8  1
  6  9  1
  7 10  2
  8 11  1
  8 12  2
  9 13  1
 10 14  1
 11 15  2
 13 16  1
 17 14  1
 14 18  1
 16 19  2
 16 20  1
 17 21  1
 17 22  1
 23 18  1
 19 24  1
 20 25  2
 21 26  1
 22 27  1
 24 28  2
 29 24  1  6  0
 26 30  1
 29 31  1
 29 32  1
 29 33  1
 32 34  1
 32 35  1
 32 36  1
 36 37  2
 36 38  1
 37 39  1
 38 40  1
 38 41  1
 10 12  1
 11 13  1
 23 26  1
 23 27  1
 25 28  1
 39 40  2
M  END
> <COMPOUND_NAMES>
Example 565 (R) (Page No: 695)

> <Reference>
WO2019148005

> <IC50_range_nM>
<100

> <smiles>
C[C@@](c1cccc(c1)N1Cc2c(cc(cc2C(F)(F)F)N2CC3CCC2CN3C)C1=O)(C(c1nncn1C)(F)F)F

$$$$
C21H21F3N6O
  MOLSOFT 03092310482D

 31 34  0  0  1  0  0  0  0  0999 V2000
    0.0000   -0.0000    0.0000 F   0  0  0
    1.1019    1.0081    0.0000 C   0  0  0
    2.0983   -0.0938    0.0000 F   0  0  0
    2.2038    2.0280    0.0000 F   0  0  0
    0.0821    2.1335    0.0000 C   0  0  0
   -1.3950    1.8287    0.0000 C   0  0  0
    0.5275    3.5636    0.0000 C   0  0  0
   -2.4148    2.9541    0.0000 C   0  0  0
   -2.1569    0.5392    0.0000 C   0  0  0
   -0.4923    4.6890    0.0000 C   0  0  0
   -3.7981    2.3562    0.0000 C   0  0  0
   -1.9694    4.3842    0.0000 C   0  0  0
   -3.6340    0.8675    0.0000 N   0  0  0
   -5.1110    3.1182    0.0000 O   0  0  0
   -4.7593   -0.1289    0.0000 C   0  0  0
   -6.1895    0.3400    0.0000 N   0  0  0
   -4.4546   -1.5825    0.0000 C   0  0  0
   -7.3149   -0.6565    0.0000 C   0  0  0
   -5.5799   -2.5672    0.0000 C   0  0  0
   -8.7567   -0.1876    0.0000 N   0  0  0
   -7.0101   -2.1101    0.0000 C   0  0  0
   -5.2751   -4.0208    0.0000 C   0  0  1
   -9.8821   -1.1840    0.0000 C   0  0  0
   -6.4005   -5.0172    0.0000 C   0  0  0
   -3.8567   -4.4663    0.0000 C   0  0  0
   -6.0957   -6.4708    0.0000 C   0  0  0
   -4.7359   -7.0687    0.0000 N   0  0  0
   -7.1038   -7.5727    0.0000 N   0  0  0
   -4.9000   -8.5457    0.0000 N   0  0  0
   -6.3653   -8.8622    0.0000 C   0  0  0
   -8.6043   -7.4086    0.0000 C   0  0  0
  1  2  1
  2  3  1
  2  4  1
  2  5  1
  5  6  2
  5  7  1
  6  8  1
  6  9  1
  7 10  2
  8 11  1
  8 12  2
  9 13  1
 11 14  2
 13 15  1
 15 16  2
 15 17  1
 16 18  1
 17 19  2
 18 20  1
 18 21  2
 22 19  1
 20 23  1
 22 24  1
 22 25  1  6  0
 24 26  1
 26 27  2
 26 28  1
 27 29  1
 28 30  1
 28 31  1
 10 12  1
 11 13  1
 19 21  1
 29 30  2
M  END
> <COMPOUND_NAMES>
Example 363 (R) (Page No: 545)

> <Reference>
WO2019148005

> <IC50_range_nM>
<100

> <smiles>
C[C@H](Cc1nncn1C)c1cc(NC)nc(c1)N1Cc2c(cccc2C(F)(F)F)C1=O

$$$$
C22H23F3N6O
  MOLSOFT 03092310482D

 32 35  0  0  1  0  0  0  0  0999 V2000
    0.0000   -0.0000    0.0000 F   0  0  0
    1.1018    1.0080    0.0000 C   0  0  0
    2.0981   -0.0938    0.0000 F   0  0  0
    2.2036    2.0278    0.0000 F   0  0  0
    0.0820    2.1333    0.0000 C   0  0  0
   -1.3948    1.8285    0.0000 C   0  0  0
    0.5275    3.5633    0.0000 C   0  0  0
   -2.4146    2.9538    0.0000 C   0  0  0
   -2.1567    0.5392    0.0000 C   0  0  0
   -0.4923    4.6886    0.0000 C   0  0  0
   -3.7977    2.3560    0.0000 C   0  0  0
   -1.9692    4.3838    0.0000 C   0  0  0
   -3.6336    0.8674    0.0000 N   0  0  0
   -5.1105    3.1179    0.0000 O   0  0  0
   -4.7589   -0.1289    0.0000 C   0  0  0
   -6.1889    0.3399    0.0000 N   0  0  0
   -4.4541   -1.5824    0.0000 C   0  0  0
   -7.3141   -0.6564    0.0000 C   0  0  0
   -5.5794   -2.5670    0.0000 C   0  0  0
   -8.7559   -0.1875    0.0000 N   0  0  0
   -7.0094   -2.1099    0.0000 C   0  0  0
   -5.2746   -4.0204    0.0000 C   0  0  1
   -9.8811   -1.1839    0.0000 C   0  0  0
   -6.3999   -5.0168    0.0000 C   0  0  0
   -3.8563   -4.4658    0.0000 C   0  0  0
  -11.3111   -0.7150    0.0000 C   0  0  0
   -6.0951   -6.4702    0.0000 C   0  0  0
   -4.7354   -7.0680    0.0000 N   0  0  0
   -7.1032   -7.5720    0.0000 N   0  0  0
   -4.8995   -8.5449    0.0000 N   0  0  0
   -6.3647   -8.8614    0.0000 C   0  0  0
   -8.6035   -7.4079    0.0000 C   0  0  0
  1  2  1
  2  3  1
  2  4  1
  2  5  1
  5  6  2
  5  7  1
  6  8  1
  6  9  1
  7 10  2
  8 11  1
  8 12  2
  9 13  1
 11 14  2
 13 15  1
 15 16  2
 15 17  1
 16 18  1
 17 19  2
 18 20  1
 18 21  2
 22 19  1
 20 23  1
 22 24  1
 22 25  1  6  0
 23 26  1
 24 27  1
 27 28  2
 27 29  1
 28 30  1
 29 31  1
 29 32  1
 10 12  1
 11 13  1
 19 21  1
 30 31  2
M  END
> <COMPOUND_NAMES>
Example 360 (R) (Page No: 544)

> <Reference>
WO2019148005

> <IC50_range_nM>
<100

> <smiles>
CCNc1cc(cc(n1)N1Cc2c(cccc2C(F)(F)F)C1=O)[C@H](C)Cc1nncn1C

$$$$
C23H25F3N6O
  MOLSOFT 03092310482D

 33 36  0  0  1  0  0  0  0  0999 V2000
    0.0000   -0.0000    0.0000 F   0  0  0
    1.1021    1.0083    0.0000 C   0  0  0
    2.0987   -0.0938    0.0000 F   0  0  0
    2.2042    2.0284    0.0000 F   0  0  0
    0.0821    2.1339    0.0000 C   0  0  0
   -1.3952    1.8290    0.0000 C   0  0  0
    0.5276    3.5643    0.0000 C   0  0  0
   -2.4153    2.9546    0.0000 C   0  0  0
   -2.1573    0.5393    0.0000 C   0  0  0
   -0.4924    4.6899    0.0000 C   0  0  0
   -3.7988    2.3567    0.0000 C   0  0  0
   -1.9697    4.3850    0.0000 C   0  0  0
   -3.6346    0.8676    0.0000 N   0  0  0
   -5.1119    3.1188    0.0000 O   0  0  0
   -4.7602   -0.1290    0.0000 C   0  0  0
   -6.1906    0.3400    0.0000 N   0  0  0
   -4.4554   -1.5828    0.0000 C   0  0  0
   -7.3162   -0.6566    0.0000 C   0  0  0
   -5.5809   -2.5677    0.0000 C   0  0  0
   -8.7583   -0.1876    0.0000 N   0  0  0
   -7.0113   -2.1104    0.0000 C   0  0  0
   -5.2761   -4.0215    0.0000 C   0  0  1
   -9.8839   -1.1842    0.0000 C   0  0  0
   -6.4017   -5.0181    0.0000 C   0  0  0
   -3.8574   -4.4671    0.0000 C   0  0  0
  -11.3143   -0.7152    0.0000 C   0  0  0
   -9.5790   -2.6380    0.0000 C   0  0  0
   -6.0968   -6.4720    0.0000 C   0  0  0
   -4.7368   -7.0700    0.0000 N   0  0  0
   -7.1051   -7.5741    0.0000 N   0  0  0
   -4.9009   -8.5473    0.0000 N   0  0  0
   -6.3665   -8.8638    0.0000 C   0  0  0
   -8.6059   -7.4100    0.0000 C   0  0  0
  1  2  1
  2  3  1
  2  4  1
  2  5  1
  5  6  2
  5  7  1
  6  8  1
  6  9  1
  7 10  2
  8 11  1
  8 12  2
  9 13  1
 11 14  2
 13 15  1
 15 16  2
 15 17  1
 16 18  1
 17 19  2
 18 20  1
 18 21  2
 22 19  1
 20 23  1
 22 24  1
 22 25  1  6  0
 23 26  1
 23 27  1
 24 28  1
 28 29  2
 28 30  1
 29 31  1
 30 32  1
 30 33  1
 10 12  1
 11 13  1
 19 21  1
 31 32  2
M  END
> <COMPOUND_NAMES>
Example 353 (R) (Page No: 541)

> <Reference>
WO2019148005

> <IC50_range_nM>
<100

> <smiles>
CC(C)Nc1cc(cc(n1)N1Cc2c(cccc2C(F)(F)F)C1=O)[C@H](C)Cc1nncn1C

$$$$
C22H23F3N6O2
  MOLSOFT 03092310482D

 33 36  0  0  1  0  0  0  0  0999 V2000
    0.0000   -0.0000    0.0000 F   0  0  0
    1.1033    1.0094    0.0000 C   0  0  0
    2.0892   -0.0939    0.0000 F   0  0  0
    2.2066    2.0188    0.0000 F   0  0  0
    0.0939    2.1361    0.0000 C   0  0  0
   -1.3850    1.8310    0.0000 C   0  0  0
    0.5399    3.5681    0.0000 C   0  0  0
   -2.3944    2.9577    0.0000 C   0  0  0
   -2.1479    0.5399    0.0000 C   0  0  0
   -0.4695    4.6948    0.0000 C   0  0  0
   -3.7793    2.3592    0.0000 C   0  0  0
   -1.9484    4.3897    0.0000 C   0  0  0
   -3.6268    0.8685    0.0000 N   0  0  0
   -5.0939    3.1221    0.0000 O   0  0  0
   -4.7535   -0.1174    0.0000 C   0  0  0
   -6.1854    0.3521    0.0000 N   0  0  0
   -4.4484   -1.5728    0.0000 C   0  0  0
   -7.3122   -0.6338    0.0000 C   0  0  0
   -5.5751   -2.5587    0.0000 C   0  0  0
   -8.7441   -0.1643    0.0000 N   0  0  0
   -7.0070   -2.0892    0.0000 C   0  0  0
   -5.2699   -4.0141    0.0000 C   0  0  1
   -9.0728    1.3146    0.0000 C   0  0  0
   -3.8615   -4.4601    0.0000 C   0  0  0
   -6.3967   -5.0000    0.0000 C   0  0  0
  -10.5047    1.7840    0.0000 C   0  0  0
   -3.5563   -5.9155    0.0000 C   0  0  0
  -10.8333    3.2629    0.0000 O   0  0  0
   -2.1948   -6.5141    0.0000 N   0  0  0
   -4.5657   -7.0188    0.0000 N   0  0  0
   -2.3592   -7.9930    0.0000 N   0  0  0
   -3.8263   -8.2981    0.0000 C   0  0  0
   -6.0681   -6.8545    0.0000 C   0  0  0
  1  2  1
  2  3  1
  2  4  1
  2  5  1
  5  6  2
  5  7  1
  6  8  1
  6  9  1
  7 10  2
  8 11  1
  8 12  2
  9 13  1
 11 14  2
 13 15  1
 15 16  2
 15 17  1
 16 18  1
 17 19  2
 18 20  1
 18 21  2
 22 19  1
 20 23  1
 22 24  1
 22 25  1  1  0
 23 26  1
 24 27  1
 26 28  1
 27 29  2
 27 30  1
 29 31  1
 30 32  1
 30 33  1
 10 12  1
 11 13  1
 19 21  1
 31 32  2
M  END
> <COMPOUND_NAMES>
Example 357 (R) (Page No: 543)

> <Reference>
WO2019148005

> <IC50_range_nM>
101-300

> <smiles>
C[C@H](Cc1nncn1C)c1cc(NCCO)nc(c1)N1Cc2c(cccc2C(F)(F)F)C1=O

$$$$
C23H25F3N6O2
  MOLSOFT 03092310482D

 34 37  0  0  1  0  0  0  0  0999 V2000
    0.0000   -0.0000    0.0000 F   0  0  0
    1.1020    1.0083    0.0000 C   0  0  0
    2.0986   -0.0938    0.0000 F   0  0  0
    2.2041    2.0282    0.0000 F   0  0  0
    0.0821    2.1338    0.0000 C   0  0  0
   -1.3951    1.8289    0.0000 C   0  0  0
    0.5276    3.5641    0.0000 C   0  0  0
   -2.4151    2.9544    0.0000 C   0  0  0
   -2.1572    0.5393    0.0000 C   0  0  0
   -0.4924    4.6896    0.0000 C   0  0  0
   -3.7986    2.3565    0.0000 C   0  0  0
   -1.9696    4.3847    0.0000 C   0  0  0
   -3.6344    0.8676    0.0000 N   0  0  0
   -5.1116    3.1186    0.0000 O   0  0  0
   -4.7599   -0.1290    0.0000 C   0  0  0
   -6.1902    0.3400    0.0000 N   0  0  0
   -4.4551   -1.5827    0.0000 C   0  0  0
   -7.3157   -0.6565    0.0000 C   0  0  0
   -5.5806   -2.5675    0.0000 C   0  0  0
   -8.7578   -0.1876    0.0000 N   0  0  0
   -7.0109   -2.1103    0.0000 C   0  0  0
   -5.2758   -4.0213    0.0000 C   0  0  1
   -9.8833   -1.1841    0.0000 C   0  0  2
   -6.4013   -5.0178    0.0000 C   0  0  0
   -3.8572   -4.4668    0.0000 C   0  0  0
  -11.3136   -0.7152    0.0000 C   0  0  0
   -9.5784   -2.6379    0.0000 C   0  0  0
   -6.0964   -6.4716    0.0000 C   0  0  0
  -12.4391   -1.7117    0.0000 O   0  0  0
   -4.7365   -7.0695    0.0000 N   0  0  0
   -7.1047   -7.5737    0.0000 N   0  0  0
   -4.9006   -8.5467    0.0000 N   0  0  0
   -6.3661   -8.8633    0.0000 C   0  0  0
   -8.6054   -7.4095    0.0000 C   0  0  0
  1  2  1
  2  3  1
  2  4  1
  2  5  1
  5  6  2
  5  7  1
  6  8  1
  6  9  1
  7 10  2
  8 11  1
  8 12  2
  9 13  1
 11 14  2
 13 15  1
 15 16  2
 15 17  1
 16 18  1
 17 19  2
 18 20  1
 18 21  2
 22 19  1
 23 20  1  1  0
 22 24  1
 22 25  1  6  0
 23 26  1
 23 27  1
 24 28  1
 26 29  1
 28 30  2
 28 31  1
 30 32  1
 31 33  1
 31 34  1
 10 12  1
 11 13  1
 19 21  1
 32 33  2
M  END
> <COMPOUND_NAMES>
Example 365 (Stereo) (Page No: 546)

> <Reference>
WO2019148005

> <IC50_range_nM>
101-300

> <smiles>
C[C@@H](CO)Nc1cc(cc(n1)N1Cc2c(cccc2C(F)(F)F)C1=O)[C@H](C)Cc1nncn1C

$$$$
C23H25F3N6O2
  MOLSOFT 03092310482D

 34 37  0  0  1  0  0  0  0  0999 V2000
    0.0000   -0.0000    0.0000 F   0  0  0
    1.1020    1.0083    0.0000 C   0  0  0
    2.0986   -0.0938    0.0000 F   0  0  0
    2.2041    2.0282    0.0000 F   0  0  0
    0.0821    2.1338    0.0000 C   0  0  0
   -1.3951    1.8289    0.0000 C   0  0  0
    0.5276    3.5641    0.0000 C   0  0  0
   -2.4151    2.9544    0.0000 C   0  0  0
   -2.1572    0.5393    0.0000 C   0  0  0
   -0.4924    4.6896    0.0000 C   0  0  0
   -3.7986    2.3565    0.0000 C   0  0  0
   -1.9696    4.3847    0.0000 C   0  0  0
   -3.6344    0.8676    0.0000 N   0  0  0
   -5.1116    3.1186    0.0000 O   0  0  0
   -4.7599   -0.1290    0.0000 C   0  0  0
   -6.1902    0.3400    0.0000 N   0  0  0
   -4.4551   -1.5827    0.0000 C   0  0  0
   -7.3157   -0.6565    0.0000 C   0  0  0
   -5.5806   -2.5675    0.0000 C   0  0  0
   -8.7578   -0.1876    0.0000 N   0  0  0
   -7.0109   -2.1103    0.0000 C   0  0  0
   -5.2758   -4.0213    0.0000 C   0  0  2
   -9.8833   -1.1841    0.0000 C   0  0  2
   -6.4013   -5.0178    0.0000 C   0  0  0
   -3.8572   -4.4668    0.0000 C   0  0  0
  -11.3136   -0.7152    0.0000 C   0  0  0
   -9.5784   -2.6379    0.0000 C   0  0  0
   -6.0964   -6.4716    0.0000 C   0  0  0
  -12.4391   -1.7117    0.0000 O   0  0  0
   -4.7365   -7.0695    0.0000 N   0  0  0
   -7.1047   -7.5737    0.0000 N   0  0  0
   -4.9006   -8.5467    0.0000 N   0  0  0
   -6.3661   -8.8633    0.0000 C   0  0  0
   -8.6054   -7.4095    0.0000 C   0  0  0
  1  2  1
  2  3  1
  2  4  1
  2  5  1
  5  6  2
  5  7  1
  6  8  1
  6  9  1
  7 10  2
  8 11  1
  8 12  2
  9 13  1
 11 14  2
 13 15  1
 15 16  2
 15 17  1
 16 18  1
 17 19  2
 18 20  1
 18 21  2
 22 19  1
 23 20  1  1  0
 22 24  1
 22 25  1  1  0
 23 26  1
 23 27  1
 24 28  1
 26 29  1
 28 30  2
 28 31  1
 30 32  1
 31 33  1
 31 34  1
 10 12  1
 11 13  1
 19 21  1
 32 33  2
M  END
> <COMPOUND_NAMES>
Example 366 (Stereo) (Page No: 547)

> <Reference>
WO2019148005

> <IC50_range_nM>
101-300

> <smiles>
C[C@@H](Cc1nncn1C)c1cc(N[C@@H](C)CO)nc(c1)N1Cc2c(cccc2C(F)(F)F)C1=O

$$$$
C23H25F3N6O2
  MOLSOFT 03092310482D

 34 37  0  0  1  0  0  0  0  0999 V2000
    0.0000   -0.0000    0.0000 F   0  0  0
    1.1015    1.0078    0.0000 C   0  0  0
    2.0975   -0.0937    0.0000 F   0  0  0
    2.2030    2.0272    0.0000 F   0  0  0
    0.0820    2.1327    0.0000 C   0  0  0
   -1.3944    1.8280    0.0000 C   0  0  0
    0.5273    3.5623    0.0000 C   0  0  0
   -2.4139    2.9529    0.0000 C   0  0  0
   -2.1561    0.5390    0.0000 C   0  0  0
   -0.4922    4.6872    0.0000 C   0  0  0
   -3.7966    2.3553    0.0000 C   0  0  0
   -1.9686    4.3825    0.0000 C   0  0  0
   -3.6326    0.8671    0.0000 N   0  0  0
   -5.1091    3.1170    0.0000 O   0  0  0
   -4.7575   -0.1289    0.0000 C   0  0  0
   -6.1871    0.3398    0.0000 N   0  0  0
   -4.4529   -1.5819    0.0000 C   0  0  0
   -7.3121   -0.6562    0.0000 C   0  0  0
   -5.5778   -2.5663    0.0000 C   0  0  0
   -8.7534   -0.1875    0.0000 N   0  0  0
   -7.0074   -2.1092    0.0000 C   0  0  0
   -5.2731   -4.0193    0.0000 C   0  0  1
   -9.8783   -1.1835    0.0000 C   0  0  0
   -6.3980   -5.0153    0.0000 C   0  0  0
   -3.8552   -4.4646    0.0000 C   0  0  0
  -11.3079   -0.7148    0.0000 C   0  0  1
   -6.0934   -6.4684    0.0000 C   0  0  0
  -11.6360    0.7617    0.0000 O   0  0  0
  -12.4328   -1.7108    0.0000 C   0  0  0
   -4.7341   -7.0660    0.0000 N   0  0  0
   -7.1011   -7.5699    0.0000 N   0  0  0
   -4.8981   -8.5425    0.0000 N   0  0  0
   -6.3629   -8.8588    0.0000 C   0  0  0
   -8.6010   -7.4058    0.0000 C   0  0  0
  1  2  1
  2  3  1
  2  4  1
  2  5  1
  5  6  2
  5  7  1
  6  8  1
  6  9  1
  7 10  2
  8 11  1
  8 12  2
  9 13  1
 11 14  2
 13 15  1
 15 16  2
 15 17  1
 16 18  1
 17 19  2
 18 20  1
 18 21  2
 22 19  1
 20 23  1
 22 24  1
 22 25  1  6  0
 26 23  1
 24 27  1
 26 28  1  6  0
 26 29  1
 27 30  2
 27 31  1
 30 32  1
 31 33  1
 31 34  1
 10 12  1
 11 13  1
 19 21  1
 32 33  2
M  END
> <COMPOUND_NAMES>
Example 364 (Stereo) (Page No: 546)

> <Reference>
WO2019148005

> <IC50_range_nM>
301-1000

> <smiles>
C[C@@H](CNc1cc(cc(n1)N1Cc2c(cccc2C(F)(F)F)C1=O)[C@H](C)Cc1nncn1C)O

$$$$
C24H25F3N6O
  MOLSOFT 03092310482D

 34 38  0  0  1  0  0  0  0  0999 V2000
    0.0000   -0.0000    0.0000 F   0  0  0
    1.1031    1.0093    0.0000 C   0  0  0
    2.0889   -0.0939    0.0000 F   0  0  0
    2.2063    2.0185    0.0000 F   0  0  0
    0.0939    2.1359    0.0000 C   0  0  0
   -1.3848    1.8307    0.0000 C   0  0  0
    0.5398    3.5676    0.0000 C   0  0  0
   -2.3940    2.9573    0.0000 C   0  0  0
   -2.1476    0.5398    0.0000 C   0  0  0
   -0.4694    4.6942    0.0000 C   0  0  0
   -3.7788    2.3588    0.0000 C   0  0  0
   -1.9481    4.3891    0.0000 C   0  0  0
   -3.6263    0.8684    0.0000 N   0  0  0
   -5.0932    3.1216    0.0000 O   0  0  0
   -4.7529   -0.1174    0.0000 C   0  0  0
   -6.1846    0.3521    0.0000 N   0  0  0
   -4.4477   -1.5726    0.0000 C   0  0  0
   -7.3112   -0.6337    0.0000 C   0  0  0
   -5.5744   -2.5583    0.0000 C   0  0  0
   -8.7429   -0.1643    0.0000 N   0  0  0
   -7.0061   -2.0889    0.0000 C   0  0  0
   -5.2692   -4.0135    0.0000 C   0  0  1
   -9.0715    1.3144    0.0000 C   0  0  0
   -3.8610   -4.4595    0.0000 C   0  0  0
   -6.3958   -4.9993    0.0000 C   0  0  0
  -10.3390    2.1359    0.0000 C   0  0  0
   -8.2618    2.5818    0.0000 C   0  0  0
   -3.5559   -5.9147    0.0000 C   0  0  0
   -9.5292    3.4033    0.0000 C   0  0  0
   -2.1945   -6.5132    0.0000 N   0  0  0
   -4.5651   -7.0178    0.0000 N   0  0  0
   -2.3588   -7.9919    0.0000 N   0  0  0
   -3.8258   -8.2970    0.0000 C   0  0  0
   -6.0672   -6.8535    0.0000 C   0  0  0
  1  2  1
  2  3  1
  2  4  1
  2  5  1
  5  6  2
  5  7  1
  6  8  1
  6  9  1
  7 10  2
  8 11  1
  8 12  2
  9 13  1
 11 14  2
 13 15  1
 15 16  2
 15 17  1
 16 18  1
 17 19  2
 18 20  1
 18 21  2
 22 19  1
 20 23  1
 22 24  1
 22 25  1  1  0
 23 26  1
 23 27  1
 24 28  1
 26 29  1
 28 30  2
 28 31  1
 30 32  1
 31 33  1
 31 34  1
 10 12  1
 11 13  1
 19 21  1
 27 29  1
 32 33  2
M  END
> <COMPOUND_NAMES>
Example 351 (R) (Page No: 540)

> <Reference>
WO2019148005

> <IC50_range_nM>
101-300

> <smiles>
C[C@H](Cc1nncn1C)c1cc(NC2CCC2)nc(c1)N1Cc2c(cccc2C(F)(F)F)C1=O

$$$$
C23H23F3N6O2
  MOLSOFT 03092310482D

 34 38  0  0  1  0  0  0  0  0999 V2000
    0.0000   -0.0000    0.0000 F   0  0  0
    1.1031    1.0093    0.0000 C   0  0  0
    2.0889   -0.0939    0.0000 F   0  0  0
    2.2063    2.0185    0.0000 F   0  0  0
    0.0939    2.1359    0.0000 C   0  0  0
   -1.3848    1.8307    0.0000 C   0  0  0
    0.5398    3.5676    0.0000 C   0  0  0
   -2.3940    2.9573    0.0000 C   0  0  0
   -2.1476    0.5398    0.0000 C   0  0  0
   -0.4694    4.6942    0.0000 C   0  0  0
   -3.7788    2.3588    0.0000 C   0  0  0
   -1.9481    4.3891    0.0000 C   0  0  0
   -3.6263    0.8684    0.0000 N   0  0  0
   -5.0932    3.1216    0.0000 O   0  0  0
   -4.7529   -0.1174    0.0000 C   0  0  0
   -6.1846    0.3521    0.0000 N   0  0  0
   -4.4477   -1.5726    0.0000 C   0  0  0
   -7.3112   -0.6337    0.0000 C   0  0  0
   -5.5744   -2.5583    0.0000 C   0  0  0
   -8.7429   -0.1643    0.0000 N   0  0  0
   -7.0061   -2.0889    0.0000 C   0  0  0
   -5.2692   -4.0135    0.0000 C   0  0  2
   -9.0715    1.3144    0.0000 C   0  0  0
   -3.8610   -4.4595    0.0000 C   0  0  0
   -6.3958   -4.9993    0.0000 C   0  0  0
  -10.3390    2.1359    0.0000 C   0  0  0
   -8.2618    2.5818    0.0000 C   0  0  0
   -3.5559   -5.9147    0.0000 C   0  0  0
   -9.5292    3.4033    0.0000 O   0  0  0
   -2.1945   -6.5132    0.0000 N   0  0  0
   -4.5651   -7.0178    0.0000 N   0  0  0
   -2.3588   -7.9919    0.0000 N   0  0  0
   -3.8258   -8.2970    0.0000 C   0  0  0
   -6.0672   -6.8535    0.0000 C   0  0  0
  1  2  1
  2  3  1
  2  4  1
  2  5  1
  5  6  2
  5  7  1
  6  8  1
  6  9  1
  7 10  2
  8 11  1
  8 12  2
  9 13  1
 11 14  2
 13 15  1
 15 16  2
 15 17  1
 16 18  1
 17 19  2
 18 20  1
 18 21  2
 22 19  1
 20 23  1
 22 24  1
 22 25  1  6  0
 23 26  1
 23 27  1
 24 28  1
 26 29  1
 28 30  2
 28 31  1
 30 32  1
 31 33  1
 31 34  1
 10 12  1
 11 13  1
 19 21  1
 27 29  1
 32 33  2
M  END
> <COMPOUND_NAMES>
Example 352 (R) (Page No: 540)

> <Reference>
WO2019148005

> <IC50_range_nM>
<100

> <smiles>
C[C@@H](Cc1nncn1C)c1cc(NC2COC2)nc(c1)N1Cc2c(cccc2C(F)(F)F)C1=O

$$$$
C24H25F3N6O2
  MOLSOFT 03092310482D

 35 39  0  0  1  0  0  0  0  0999 V2000
    0.0000   -0.0000    0.0000 F   0  0  0
    1.1036    1.0096    0.0000 C   0  0  0
    2.0897   -0.0939    0.0000 F   0  0  0
    2.2071    2.0193    0.0000 F   0  0  0
    0.0939    2.1367    0.0000 C   0  0  0
   -1.3853    1.8315    0.0000 C   0  0  0
    0.5400    3.5690    0.0000 C   0  0  0
   -2.3950    2.9585    0.0000 C   0  0  0
   -2.1484    0.5400    0.0000 C   0  0  0
   -0.4696    4.6960    0.0000 C   0  0  0
   -3.7803    2.3598    0.0000 C   0  0  0
   -1.9489    4.3908    0.0000 C   0  0  0
   -3.6277    0.8688    0.0000 N   0  0  0
   -5.0952    3.1229    0.0000 O   0  0  0
   -4.7547   -0.1174    0.0000 C   0  0  0
   -6.1870    0.3522    0.0000 N   0  0  0
   -4.4495   -1.5732    0.0000 C   0  0  0
   -7.3141   -0.6340    0.0000 C   0  0  0
   -5.5765   -2.5593    0.0000 C   0  0  0
   -8.7464   -0.1644    0.0000 N   0  0  0
   -7.0088   -2.0897    0.0000 C   0  0  0
   -5.2713   -4.0151    0.0000 C   0  0  1
   -9.0751    1.3149    0.0000 C   0  0  0
   -3.8625   -4.4612    0.0000 C   0  0  0
   -6.3983   -5.0013    0.0000 C   0  0  0
  -10.3430    2.1367    0.0000 C   0  0  0
   -8.2650    2.5828    0.0000 C   0  0  0
   -7.6663    0.8688    0.0000 C   0  0  0
   -3.5572   -5.9170    0.0000 C   0  0  0
   -9.5329    3.4046    0.0000 O   0  0  0
   -2.1954   -6.5157    0.0000 N   0  0  0
   -4.5669   -7.0206    0.0000 N   0  0  0
   -2.3598   -7.9950    0.0000 N   0  0  0
   -3.8273   -8.3002    0.0000 C   0  0  0
   -6.0696   -6.8562    0.0000 C   0  0  0
  1  2  1
  2  3  1
  2  4  1
  2  5  1
  5  6  2
  5  7  1
  6  8  1
  6  9  1
  7 10  2
  8 11  1
  8 12  2
  9 13  1
 11 14  2
 13 15  1
 15 16  2
 15 17  1
 16 18  1
 17 19  2
 18 20  1
 18 21  2
 22 19  1
 20 23  1
 22 24  1
 22 25  1  1  0
 23 26  1
 23 27  1
 23 28  1
 24 29  1
 26 30  1
 29 31  2
 29 32  1
 31 33  1
 32 34  1
 32 35  1
 10 12  1
 11 13  1
 19 21  1
 27 30  1
 33 34  2
M  END
> <COMPOUND_NAMES>
Example 349 (R) (Page No: 539)

> <Reference>
WO2019148005

> <IC50_range_nM>
301-1000

> <smiles>
C[C@H](Cc1nncn1C)c1cc(NC2(C)COC2)nc(c1)N1Cc2c(cccc2C(F)(F)F)C1=O

$$$$
C24H25F3N6O2
  MOLSOFT 03092310482D

 35 39  0  0  1  0  0  0  0  0999 V2000
    0.0000   -0.0000    0.0000 F   0  0  0
    1.1030    1.0091    0.0000 C   0  0  0
    2.0886   -0.0939    0.0000 F   0  0  0
    2.2060    2.0182    0.0000 F   0  0  0
    0.0939    2.1356    0.0000 C   0  0  0
   -1.3846    1.8305    0.0000 C   0  0  0
    0.5398    3.5671    0.0000 C   0  0  0
   -2.3937    2.9569    0.0000 C   0  0  0
   -2.1473    0.5398    0.0000 C   0  0  0
   -0.4694    4.6935    0.0000 C   0  0  0
   -3.7783    2.3585    0.0000 C   0  0  0
   -1.9478    4.3885    0.0000 C   0  0  0
   -3.6258    0.8683    0.0000 N   0  0  0
   -5.0925    3.1212    0.0000 O   0  0  0
   -4.7522   -0.1173    0.0000 C   0  0  0
   -6.1837    0.3520    0.0000 N   0  0  0
   -4.4471   -1.5723    0.0000 C   0  0  0
   -7.3102   -0.6336    0.0000 C   0  0  0
   -5.5736   -2.5580    0.0000 C   0  0  0
   -8.7417   -0.1643    0.0000 N   0  0  0
   -7.0051   -2.0886    0.0000 C   0  0  0
   -5.2685   -4.0130    0.0000 C   0  0  1
   -9.0703    1.3142    0.0000 C   0  0  1
   -3.8604   -4.4589    0.0000 C   0  0  0
   -6.3949   -4.9986    0.0000 C   0  0  0
   -8.2606    2.5814    0.0000 C   0  0  1
  -10.3375    2.1356    0.0000 C   0  0  0
   -3.5554   -5.9139    0.0000 C   0  0  0
   -6.8056    2.9100    0.0000 O   0  0  0
   -9.5279    3.4146    0.0000 C   0  0  0
   -2.1942   -6.5123    0.0000 N   0  0  0
   -4.5645   -7.0168    0.0000 N   0  0  0
   -2.3585   -7.9908    0.0000 N   0  0  0
   -3.8252   -8.2958    0.0000 C   0  0  0
   -6.0664   -6.8526    0.0000 C   0  0  0
  1  2  1
  2  3  1
  2  4  1
  2  5  1
  5  6  2
  5  7  1
  6  8  1
  6  9  1
  7 10  2
  8 11  1
  8 12  2
  9 13  1
 11 14  2
 13 15  1
 15 16  2
 15 17  1
 16 18  1
 17 19  2
 18 20  1
 18 21  2
 22 19  1
 23 20  1  6  0
 22 24  1
 22 25  1  1  0
 23 26  1
 23 27  1
 24 28  1
 26 29  1  6  0
 26 30  1
 28 31  2
 28 32  1
 31 33  1
 32 34  1
 32 35  1
 10 12  1
 11 13  1
 19 21  1
 27 30  1
 33 34  2
M  END
> <COMPOUND_NAMES>
Example 689a (Stereo) (Page No: 766)

> <Reference>
WO2019148005

> <IC50_range_nM>
301-1000

> <smiles>
C[C@H](Cc1nncn1C)c1cc(N[C@@H]2CC[C@@H]2O)nc(c1)N1Cc2c(cccc2C(F)(F)F)C1=O

$$$$
C24H25F3N6O2
  MOLSOFT 03092310482D

 35 39  0  0  1  0  0  0  0  0999 V2000
    0.0000   -0.0000    0.0000 F   0  0  0
    1.1030    1.0091    0.0000 C   0  0  0
    2.0886   -0.0939    0.0000 F   0  0  0
    2.2060    2.0182    0.0000 F   0  0  0
    0.0939    2.1356    0.0000 C   0  0  0
   -1.3846    1.8305    0.0000 C   0  0  0
    0.5398    3.5671    0.0000 C   0  0  0
   -2.3937    2.9569    0.0000 C   0  0  0
   -2.1473    0.5398    0.0000 C   0  0  0
   -0.4694    4.6935    0.0000 C   0  0  0
   -3.7783    2.3585    0.0000 C   0  0  0
   -1.9478    4.3885    0.0000 C   0  0  0
   -3.6258    0.8683    0.0000 N   0  0  0
   -5.0925    3.1212    0.0000 O   0  0  0
   -4.7522   -0.1173    0.0000 C   0  0  0
   -6.1837    0.3520    0.0000 N   0  0  0
   -4.4471   -1.5723    0.0000 C   0  0  0
   -7.3102   -0.6336    0.0000 C   0  0  0
   -5.5736   -2.5580    0.0000 C   0  0  0
   -8.7417   -0.1643    0.0000 N   0  0  0
   -7.0051   -2.0886    0.0000 C   0  0  0
   -5.2685   -4.0130    0.0000 C   0  0  2
   -9.0703    1.3142    0.0000 C   0  0  1
   -3.8604   -4.4589    0.0000 C   0  0  0
   -6.3949   -4.9986    0.0000 C   0  0  0
   -8.2606    2.5814    0.0000 C   0  0  1
  -10.3375    2.1356    0.0000 C   0  0  0
   -3.5554   -5.9139    0.0000 C   0  0  0
   -6.8056    2.9100    0.0000 O   0  0  0
   -9.5279    3.4146    0.0000 C   0  0  0
   -2.1942   -6.5123    0.0000 N   0  0  0
   -4.5645   -7.0168    0.0000 N   0  0  0
   -2.3585   -7.9908    0.0000 N   0  0  0
   -3.8252   -8.2958    0.0000 C   0  0  0
   -6.0664   -6.8526    0.0000 C   0  0  0
  1  2  1
  2  3  1
  2  4  1
  2  5  1
  5  6  2
  5  7  1
  6  8  1
  6  9  1
  7 10  2
  8 11  1
  8 12  2
  9 13  1
 11 14  2
 13 15  1
 15 16  2
 15 17  1
 16 18  1
 17 19  2
 18 20  1
 18 21  2
 22 19  1
 23 20  1  6  0
 22 24  1
 22 25  1  6  0
 23 26  1
 23 27  1
 24 28  1
 26 29  1  6  0
 26 30  1
 28 31  2
 28 32  1
 31 33  1
 32 34  1
 32 35  1
 10 12  1
 11 13  1
 19 21  1
 27 30  1
 33 34  2
M  END
> <COMPOUND_NAMES>
Example 689b (Stereo) (Page No: 766)

> <Reference>
WO2019148005

> <IC50_range_nM>
301-1000

> <smiles>
C[C@@H](Cc1nncn1C)c1cc(N[C@@H]2CC[C@@H]2O)nc(c1)N1Cc2c(cccc2C(F)(F)F)C1=O

$$$$
C24H25F3N6O2
  MOLSOFT 03092310482D

 35 39  0  0  1  0  0  0  0  0999 V2000
    0.0000   -0.0000    0.0000 F   0  0  0
    1.1031    1.0092    0.0000 C   0  0  0
    2.0888   -0.0939    0.0000 F   0  0  0
    2.2062    2.0184    0.0000 F   0  0  0
    0.0939    2.1358    0.0000 C   0  0  0
   -1.3847    1.8306    0.0000 C   0  0  0
    0.5398    3.5674    0.0000 C   0  0  0
   -2.3939    2.9572    0.0000 C   0  0  0
   -2.1475    0.5398    0.0000 C   0  0  0
   -0.4694    4.6940    0.0000 C   0  0  0
   -3.7786    2.3587    0.0000 C   0  0  0
   -1.9480    4.3889    0.0000 C   0  0  0
   -3.6261    0.8684    0.0000 N   0  0  0
   -5.0930    3.1215    0.0000 O   0  0  0
   -4.7526   -0.1173    0.0000 C   0  0  0
   -6.1843    0.3520    0.0000 N   0  0  0
   -4.4475   -1.5725    0.0000 C   0  0  0
   -7.3108   -0.6337    0.0000 C   0  0  0
   -5.5741   -2.5582    0.0000 C   0  0  0
   -8.7425   -0.1643    0.0000 N   0  0  0
   -7.0057   -2.0888    0.0000 C   0  0  0
   -5.2690   -4.0133    0.0000 C   0  0  1
   -9.0711    1.3143    0.0000 C   0  0  2
   -3.8608   -4.4593    0.0000 C   0  0  0
   -6.3955   -4.9991    0.0000 C   0  0  0
   -8.0854    2.4409    0.0000 C   0  0  0
  -10.4558    1.9363    0.0000 C   0  0  0
   -3.5557   -5.9144    0.0000 C   0  0  0
   -8.8481    3.7434    0.0000 O   0  0  0
  -10.3150    3.4383    0.0000 C   0  0  0
   -2.1944   -6.5129    0.0000 N   0  0  0
   -4.5649   -7.0175    0.0000 N   0  0  0
   -2.3587   -7.9915    0.0000 N   0  0  0
   -3.8256   -8.2966    0.0000 C   0  0  0
   -6.0669   -6.8532    0.0000 C   0  0  0
  1  2  1
  2  3  1
  2  4  1
  2  5  1
  5  6  2
  5  7  1
  6  8  1
  6  9  1
  7 10  2
  8 11  1
  8 12  2
  9 13  1
 11 14  2
 13 15  1
 15 16  2
 15 17  1
 16 18  1
 17 19  2
 18 20  1
 18 21  2
 22 19  1
 23 20  1  1  0
 22 24  1
 22 25  1  1  0
 23 26  1
 23 27  1
 24 28  1
 26 29  1
 27 30  1
 28 31  2
 28 32  1
 31 33  1
 32 34  1
 32 35  1
 10 12  1
 11 13  1
 19 21  1
 29 30  1
 33 34  2
M  END
> <COMPOUND_NAMES>
Example 362 (Stereo) (Page No: 545)

> <Reference>
WO2019148005

> <IC50_range_nM>
101-300

> <smiles>
C[C@H](Cc1nncn1C)c1cc(N[C@H]2CCOC2)nc(c1)N1Cc2c(cccc2C(F)(F)F)C1=O

$$$$
C24H25F3N6O2
  MOLSOFT 03092310482D

 35 39  0  0  1  0  0  0  0  0999 V2000
    0.0000   -0.0000    0.0000 F   0  0  0
    1.1031    1.0092    0.0000 C   0  0  0
    2.0888   -0.0939    0.0000 F   0  0  0
    2.2062    2.0184    0.0000 F   0  0  0
    0.0939    2.1358    0.0000 C   0  0  0
   -1.3847    1.8306    0.0000 C   0  0  0
    0.5398    3.5674    0.0000 C   0  0  0
   -2.3939    2.9572    0.0000 C   0  0  0
   -2.1475    0.5398    0.0000 C   0  0  0
   -0.4694    4.6940    0.0000 C   0  0  0
   -3.7786    2.3587    0.0000 C   0  0  0
   -1.9480    4.3889    0.0000 C   0  0  0
   -3.6261    0.8684    0.0000 N   0  0  0
   -5.0930    3.1215    0.0000 O   0  0  0
   -4.7526   -0.1173    0.0000 C   0  0  0
   -6.1843    0.3520    0.0000 N   0  0  0
   -4.4475   -1.5725    0.0000 C   0  0  0
   -7.3108   -0.6337    0.0000 C   0  0  0
   -5.5741   -2.5582    0.0000 C   0  0  0
   -8.7425   -0.1643    0.0000 N   0  0  0
   -7.0057   -2.0888    0.0000 C   0  0  0
   -5.2690   -4.0133    0.0000 C   0  0  2
   -9.0711    1.3143    0.0000 C   0  0  2
   -3.8608   -4.4593    0.0000 C   0  0  0
   -6.3955   -4.9991    0.0000 C   0  0  0
   -8.0854    2.4409    0.0000 C   0  0  0
  -10.4558    1.9363    0.0000 C   0  0  0
   -3.5557   -5.9144    0.0000 C   0  0  0
   -8.8481    3.7434    0.0000 O   0  0  0
  -10.3150    3.4383    0.0000 C   0  0  0
   -2.1944   -6.5129    0.0000 N   0  0  0
   -4.5649   -7.0175    0.0000 N   0  0  0
   -2.3587   -7.9915    0.0000 N   0  0  0
   -3.8256   -8.2966    0.0000 C   0  0  0
   -6.0669   -6.8532    0.0000 C   0  0  0
  1  2  1
  2  3  1
  2  4  1
  2  5  1
  5  6  2
  5  7  1
  6  8  1
  6  9  1
  7 10  2
  8 11  1
  8 12  2
  9 13  1
 11 14  2
 13 15  1
 15 16  2
 15 17  1
 16 18  1
 17 19  2
 18 20  1
 18 21  2
 22 19  1
 23 20  1  1  0
 22 24  1
 22 25  1  6  0
 23 26  1
 23 27  1
 24 28  1
 26 29  1
 27 30  1
 28 31  2
 28 32  1
 31 33  1
 32 34  1
 32 35  1
 10 12  1
 11 13  1
 19 21  1
 29 30  1
 33 34  2
M  END
> <COMPOUND_NAMES>
Example 361 (Stereo) (Page No: 544)

> <Reference>
WO2019148005

> <IC50_range_nM>
301-1000

> <smiles>
C[C@@H](Cc1nncn1C)c1cc(N[C@H]2CCOC2)nc(c1)N1Cc2c(cccc2C(F)(F)F)C1=O

$$$$
C23H22F3N5O
  MOLSOFT 03092310482D

 32 36  0  0  1  0  0  0  0  0999 V2000
    0.0000   -0.0000    0.0000 F   0  0  0
   -1.3168    0.7593    0.0000 C   0  0  0
   -0.5813    2.0761    0.0000 F   0  0  0
   -2.6337    1.5185    0.0000 F   0  0  0
   -2.0761   -0.5338    0.0000 C   0  0  0
   -1.3287   -1.8270    0.0000 C   0  0  0
   -3.5946   -0.5220    0.0000 C   0  0  0
   -2.0879   -3.1201    0.0000 C   0  0  0
    0.1305   -2.1235    0.0000 C   0  0  0
   -4.3538   -1.8151    0.0000 C   0  0  0
   -1.0914   -4.2233    0.0000 C   0  0  0
   -3.6065   -3.1082    0.0000 C   0  0  0
    0.2729   -3.6065    0.0000 N   0  0  0
   -1.4117   -5.6825    0.0000 O   0  0  0
    1.5660   -4.3420    0.0000 C   0  0  0
    1.5541   -5.8368    0.0000 N   0  0  0
    2.8591   -3.5827    0.0000 C   0  0  0
    2.8472   -6.5841    0.0000 C   0  0  0
    4.1522   -4.3183    0.0000 C   0  0  0
    4.1403   -5.8249    0.0000 C   0  0  0
    2.8353   -8.0789    0.0000 C   0  0  0
    5.4453   -3.5590    0.0000 C   0  0  1
    3.5827   -9.3720    0.0000 C   0  0  0
    2.0761   -9.3720    0.0000 C   0  0  0
    5.4334   -2.0405    0.0000 C   0  0  0
    6.7384   -4.2945    0.0000 C   0  0  0
    6.7265   -1.2812    0.0000 C   0  0  0
    6.8689    0.2254    0.0000 N   0  0  0
    8.0908   -1.8863    0.0000 N   0  0  0
    8.3281    0.5457    0.0000 N   0  0  0
    9.0873   -0.7593    0.0000 C   0  0  0
    8.3874   -3.3455    0.0000 C   0  0  0
  1  2  1
  2  3  1
  2  4  1
  2  5  1
  5  6  2
  5  7  1
  6  8  1
  6  9  1
  7 10  2
  8 11  1
  8 12  2
  9 13  1
 11 14  2
 13 15  1
 15 16  2
 15 17  1
 16 18  1
 17 19  2
 18 20  2
 18 21  1
 22 19  1
 21 23  1
 21 24  1
 22 25  1
 22 26  1  1  0
 25 27  1
 27 28  2
 27 29  1
 28 30  1
 29 31  1
 29 32  1
 10 12  1
 11 13  1
 19 20  1
 23 24  1
 30 31  2
M  END
> <COMPOUND_NAMES>
Example 680 (R) (Page No: 761)

> <Reference>
WO2019148005

> <IC50_range_nM>
<100

> <smiles>
C[C@H](Cc1nncn1C)c1cc(C2CC2)nc(c1)N1Cc2c(cccc2C(F)(F)F)C1=O

$$$$
C24H24F3N5O
  MOLSOFT 03092310482D

 33 37  0  0  1  0  0  0  0  0999 V2000
    0.0000   -0.0000    0.0000 F   0  0  0
   -0.7582    1.3151    0.0000 C   0  0  0
    0.5331    2.0733    0.0000 F   0  0  0
   -1.5165    2.6302    0.0000 F   0  0  0
   -2.0733    0.5805    0.0000 C   0  0  0
   -2.0852   -0.9123    0.0000 C   0  0  0
   -3.3884    1.3388    0.0000 C   0  0  0
   -3.4002   -1.6587    0.0000 C   0  0  0
   -0.9833   -1.9075    0.0000 C   0  0  0
   -4.7035    0.6042    0.0000 C   0  0  0
   -3.1041   -3.1159    0.0000 C   0  0  0
   -4.7153   -0.8886    0.0000 C   0  0  0
   -1.6113   -3.2699    0.0000 N   0  0  0
   -4.1229   -4.2177    0.0000 O   0  0  0
   -0.8649   -4.5613    0.0000 C   0  0  0
   -1.6231   -5.8527    0.0000 N   0  0  0
    0.6279   -4.5494    0.0000 C   0  0  0
   -0.8767   -7.1441    0.0000 C   0  0  0
    1.3625   -5.8408    0.0000 C   0  0  0
    0.6161   -7.1322    0.0000 C   0  0  0
   -1.6350   -8.4354    0.0000 C   0  0  0
    2.8553   -5.8290    0.0000 C   0  0  1
   -0.8886   -9.7268    0.0000 C   0  0  0
   -2.3932   -9.7268    0.0000 C   0  0  0
   -2.3932   -7.1204    0.0000 C   0  0  0
    3.5898   -4.5139    0.0000 C   0  0  0
    3.5898   -7.1204    0.0000 C   0  0  0
    5.0826   -4.5021    0.0000 C   0  0  0
    5.9593   -3.2699    0.0000 N   0  0  0
    5.9593   -5.7105    0.0000 N   0  0  0
    7.3810   -3.7201    0.0000 N   0  0  0
    7.3810   -5.2366    0.0000 C   0  0  0
    5.4854   -7.1322    0.0000 C   0  0  0
  1  2  1
  2  3  1
  2  4  1
  2  5  1
  5  6  2
  5  7  1
  6  8  1
  6  9  1
  7 10  2
  8 11  1
  8 12  2
  9 13  1
 11 14  2
 13 15  1
 15 16  2
 15 17  1
 16 18  1
 17 19  2
 18 20  2
 18 21  1
 22 19  1
 21 23  1
 21 24  1
 21 25  1
 22 26  1
 22 27  1  1  0
 26 28  1
 28 29  2
 28 30  1
 29 31  1
 30 32  1
 30 33  1
 10 12  1
 11 13  1
 19 20  1
 23 24  1
 31 32  2
M  END
> <COMPOUND_NAMES>
Example 681 (R) (Page No: 762)

> <Reference>
WO2019148005

> <IC50_range_nM>
301-1000

> <smiles>
C[C@H](Cc1nncn1C)c1cc(C2(C)CC2)nc(c1)N1Cc2c(cccc2C(F)(F)F)C1=O

$$$$
C20H18F3N5O
  MOLSOFT 03092310482D

 29 32  0  0  1  0  0  0  0  0999 V2000
    0.0000   -0.0000    0.0000 F   0  0  0
    1.1043    1.0103    0.0000 C   0  0  0
    2.0911   -0.0940    0.0000 F   0  0  0
    2.2086    2.0206    0.0000 F   0  0  0
    0.0940    2.1381    0.0000 C   0  0  0
   -1.3862    1.8327    0.0000 C   0  0  0
    0.5404    3.5713    0.0000 C   0  0  0
   -2.3965    2.9604    0.0000 C   0  0  0
   -2.1498    0.5404    0.0000 C   0  0  0
   -0.4699    4.6991    0.0000 C   0  0  0
   -3.7828    2.3613    0.0000 C   0  0  0
   -1.9501    4.3937    0.0000 C   0  0  0
   -3.6301    0.8693    0.0000 N   0  0  0
   -5.0985    3.1249    0.0000 O   0  0  0
   -4.7579   -0.1175    0.0000 C   0  0  0
   -6.1911    0.3524    0.0000 N   0  0  0
   -4.4524   -1.5742    0.0000 C   0  0  0
   -7.3189   -0.6344    0.0000 C   0  0  0
   -5.5802   -2.5610    0.0000 C   0  0  0
   -7.0134   -2.0911    0.0000 C   0  0  0
   -5.2748   -4.0177    0.0000 C   0  0  1
   -3.8650   -4.4642    0.0000 C   0  0  0
   -6.4025   -5.0046    0.0000 C   0  0  0
   -3.5596   -5.9209    0.0000 C   0  0  0
   -2.1968   -6.5200    0.0000 N   0  0  0
   -4.5699   -7.0252    0.0000 N   0  0  0
   -2.3613   -8.0002    0.0000 N   0  0  0
   -3.8298   -8.3057    0.0000 C   0  0  0
   -6.0736   -6.8607    0.0000 C   0  0  0
  1  2  1
  2  3  1
  2  4  1
  2  5  1
  5  6  2
  5  7  1
  6  8  1
  6  9  1
  7 10  2
  8 11  1
  8 12  2
  9 13  1
 11 14  2
 13 15  1
 15 16  2
 15 17  1
 16 18  1
 17 19  2
 18 20  2
 21 19  1
 21 22  1
 21 23  1  1  0
 22 24  1
 24 25  2
 24 26  1
 25 27  1
 26 28  1
 26 29  1
 10 12  1
 11 13  1
 19 20  1
 27 28  2
M  END
> <COMPOUND_NAMES>
Example 304b (R) (Page No: 511)

> <Reference>
WO2019148005

> <IC50_range_nM>
301-1000

> <smiles>
C[C@H](Cc1nncn1C)c1ccnc(c1)N1Cc2c(cccc2C(F)(F)F)C1=O

$$$$
C20H18F3N5O
  MOLSOFT 03092310482D

 29 32  0  0  1  0  0  0  0  0999 V2000
    0.0000   -0.0000    0.0000 F   0  0  0
    1.1043    1.0103    0.0000 C   0  0  0
    2.0911   -0.0940    0.0000 F   0  0  0
    2.2086    2.0206    0.0000 F   0  0  0
    0.0940    2.1381    0.0000 C   0  0  0
   -1.3862    1.8327    0.0000 C   0  0  0
    0.5404    3.5713    0.0000 C   0  0  0
   -2.3965    2.9604    0.0000 C   0  0  0
   -2.1498    0.5404    0.0000 C   0  0  0
   -0.4699    4.6991    0.0000 C   0  0  0
   -3.7828    2.3613    0.0000 C   0  0  0
   -1.9501    4.3937    0.0000 C   0  0  0
   -3.6301    0.8693    0.0000 N   0  0  0
   -5.0985    3.1249    0.0000 O   0  0  0
   -4.7579   -0.1175    0.0000 C   0  0  0
   -6.1911    0.3524    0.0000 N   0  0  0
   -4.4524   -1.5742    0.0000 C   0  0  0
   -7.3189   -0.6344    0.0000 C   0  0  0
   -5.5802   -2.5610    0.0000 C   0  0  0
   -7.0134   -2.0911    0.0000 C   0  0  0
   -5.2748   -4.0177    0.0000 C   0  0  2
   -3.8650   -4.4642    0.0000 C   0  0  0
   -6.4025   -5.0046    0.0000 C   0  0  0
   -3.5596   -5.9209    0.0000 C   0  0  0
   -2.1968   -6.5200    0.0000 N   0  0  0
   -4.5699   -7.0252    0.0000 N   0  0  0
   -2.3613   -8.0002    0.0000 N   0  0  0
   -3.8298   -8.3057    0.0000 C   0  0  0
   -6.0736   -6.8607    0.0000 C   0  0  0
  1  2  1
  2  3  1
  2  4  1
  2  5  1
  5  6  2
  5  7  1
  6  8  1
  6  9  1
  7 10  2
  8 11  1
  8 12  2
  9 13  1
 11 14  2
 13 15  1
 15 16  2
 15 17  1
 16 18  1
 17 19  2
 18 20  2
 21 19  1
 21 22  1
 21 23  1  6  0
 22 24  1
 24 25  2
 24 26  1
 25 27  1
 26 28  1
 26 29  1
 10 12  1
 11 13  1
 19 20  1
 27 28  2
M  END
> <COMPOUND_NAMES>
Example 304a (S) (Page No: 511)

> <Reference>
WO2019148005

> <IC50_range_nM>
3001-10000

> <smiles>
C[C@@H](Cc1nncn1C)c1ccnc(c1)N1Cc2c(cccc2C(F)(F)F)C1=O

$$$$
C24H24F3N5O2
  MOLSOFT 03092310482D

 34 38  0  0  1  0  0  0  0  0999 V2000
    0.0000   -0.0000    0.0000 F   0  0  0
   -1.1244   -0.9942    0.0000 C   0  0  0
   -2.1423    0.1302    0.0000 F   0  0  0
   -2.2488   -1.9884    0.0000 F   0  0  0
   -0.1302   -2.0950    0.0000 C   0  0  0
    1.3256   -1.7754    0.0000 C   0  0  0
   -0.6036   -3.5153    0.0000 C   0  0  0
    2.3198   -2.8761    0.0000 C   0  0  0
    2.0713   -0.4616    0.0000 C   0  0  0
    0.3906   -4.6160    0.0000 C   0  0  0
    3.6810   -2.2488    0.0000 C   0  0  0
    1.8464   -4.2964    0.0000 C   0  0  0
    3.5271   -0.7575    0.0000 N   0  0  0
    4.9711   -2.9945    0.0000 O   0  0  0
    4.6278    0.2604    0.0000 C   0  0  0
    6.0482   -0.1894    0.0000 N   0  0  0
    4.3083    1.7399    0.0000 C   0  0  0
    7.1489    0.8285    0.0000 C   0  0  0
    5.4090    2.7578    0.0000 C   0  0  0
    6.8293    2.3080    0.0000 C   0  0  0
    8.5692    0.3787    0.0000 C   0  0  3
    5.0894    4.2373    0.0000 C   0  0  1
    9.0190   -1.0416    0.0000 C   0  0  0
    9.7765    1.2783    0.0000 C   0  0  0
    3.6455    4.7107    0.0000 C   0  0  0
    6.1902    5.2551    0.0000 C   0  0  0
   10.5103   -1.0297    0.0000 O   0  0  0
   10.9837    0.4024    0.0000 C   0  0  0
    3.3259    6.1902    0.0000 C   0  0  0
    1.9411    6.8175    0.0000 N   0  0  0
    4.3201    7.3146    0.0000 N   0  0  0
    2.0831    8.3206    0.0000 N   0  0  0
    3.5626    8.6284    0.0000 C   0  0  0
    5.7996    7.1726    0.0000 C   0  0  0
  1  2  1
  2  3  1
  2  4  1
  2  5  1
  5  6  2
  5  7  1
  6  8  1
  6  9  1
  7 10  2
  8 11  1
  8 12  2
  9 13  1
 11 14  2
 13 15  1
 15 16  2
 15 17  1
 16 18  1
 17 19  2
 18 20  2
 21 18  1
 22 19  1
 21 23  1
 21 24  1
 22 25  1
 22 26  1  1  0
 23 27  1
 24 28  1
 25 29  1
 29 30  2
 29 31  1
 30 32  1
 31 33  1
 31 34  1
 10 12  1
 11 13  1
 19 20  1
 27 28  1
 32 33  2
M  END
> <COMPOUND_NAMES>
Example 687 (R) (Page No: 764)

> <Reference>
WO2019148005

> <IC50_range_nM>
301-1000

> <smiles>
C[C@H](Cc1nncn1C)c1cc(C2CCOC2)nc(c1)N1Cc2c(cccc2C(F)(F)F)C1=O

$$$$
C25H26F3N5O2
  MOLSOFT 03092310482D

 35 39  0  0  1  0  0  0  0  0999 V2000
    0.0000   -0.0000    0.0000 F   0  0  0
   -1.3142   -0.7341    0.0000 C   0  0  0
   -2.0719    0.5801    0.0000 F   0  0  0
   -2.6284   -1.4800    0.0000 F   0  0  0
   -0.5801   -2.0246    0.0000 C   0  0  0
    0.9117   -2.0127    0.0000 C   0  0  0
   -1.3379   -3.3151    0.0000 C   0  0  0
    1.6576   -3.3033    0.0000 C   0  0  0
    1.9062   -0.8880    0.0000 C   0  0  0
   -0.6038   -4.6056    0.0000 C   0  0  0
    3.1138   -2.9836    0.0000 C   0  0  0
    0.8998   -4.5938    0.0000 C   0  0  0
    3.2677   -1.4918    0.0000 N   0  0  0
    4.2149   -3.9781    0.0000 O   0  0  0
    4.5583   -0.7341    0.0000 C   0  0  0
    5.8488   -1.4800    0.0000 N   0  0  0
    4.5464    0.7814    0.0000 C   0  0  0
    7.1393   -0.7222    0.0000 C   0  0  0
    5.8369    1.5392    0.0000 C   0  0  0
    7.1275    0.7933    0.0000 C   0  0  0
    8.4298   -1.4681    0.0000 C   0  0  0
    5.8251    3.0546    0.0000 C   0  0  1
    9.7203   -0.7104    0.0000 C   0  0  0
    8.4180   -2.9599    0.0000 C   0  0  0
    4.5109    3.8124    0.0000 C   0  0  0
    7.1156    3.8124    0.0000 C   0  0  0
   11.0109   -1.4563    0.0000 C   0  0  0
    9.7085   -3.6940    0.0000 C   0  0  0
    4.4991    5.3278    0.0000 C   0  0  0
   10.9990   -2.9481    0.0000 O   0  0  0
    3.2677    6.2277    0.0000 N   0  0  0
    5.7067    6.2277    0.0000 N   0  0  0
    3.7176    7.6721    0.0000 N   0  0  0
    5.2331    7.6721    0.0000 C   0  0  0
    7.1275    5.7777    0.0000 C   0  0  0
  1  2  1
  2  3  1
  2  4  1
  2  5  1
  5  6  2
  5  7  1
  6  8  1
  6  9  1
  7 10  2
  8 11  1
  8 12  2
  9 13  1
 11 14  2
 13 15  1
 15 16  2
 15 17  1
 16 18  1
 17 19  2
 18 20  2
 18 21  1
 22 19  1
 21 23  1
 21 24  1
 22 25  1
 22 26  1  1  0
 23 27  1
 24 28  1
 25 29  1
 27 30  1
 29 31  2
 29 32  1
 31 33  1
 32 34  1
 32 35  1
 10 12  1
 11 13  1
 19 20  1
 28 30  1
 33 34  2
M  END
> <COMPOUND_NAMES>
Example 686 (R) (Page No: 764)

> <Reference>
WO2019148005

> <IC50_range_nM>
301-1000

> <smiles>
C[C@H](Cc1nncn1C)c1cc(C2CCOCC2)nc(c1)N1Cc2c(cccc2C(F)(F)F)C1=O

$$$$
C25H24F3N5O2
  MOLSOFT 03092310482D

 35 39  0  0  1  0  0  0  0  0999 V2000
    0.0000   -0.0000    0.0000 F   0  0  0
   -1.3142   -0.7341    0.0000 C   0  0  0
   -2.0719    0.5801    0.0000 F   0  0  0
   -2.6284   -1.4800    0.0000 F   0  0  0
   -0.5801   -2.0246    0.0000 C   0  0  0
    0.9117   -2.0127    0.0000 C   0  0  0
   -1.3379   -3.3151    0.0000 C   0  0  0
    1.6576   -3.3033    0.0000 C   0  0  0
    1.9062   -0.8880    0.0000 C   0  0  0
   -0.6038   -4.6056    0.0000 C   0  0  0
    3.1138   -2.9836    0.0000 C   0  0  0
    0.8998   -4.5938    0.0000 C   0  0  0
    3.2677   -1.4918    0.0000 N   0  0  0
    4.2149   -3.9781    0.0000 O   0  0  0
    4.5583   -0.7341    0.0000 C   0  0  0
    5.8488   -1.4800    0.0000 N   0  0  0
    4.5464    0.7814    0.0000 C   0  0  0
    7.1393   -0.7222    0.0000 C   0  0  0
    5.8369    1.5392    0.0000 C   0  0  0
    8.4298   -1.4681    0.0000 C   0  0  0
    7.1275    0.7933    0.0000 C   0  0  0
    5.8251    3.0546    0.0000 C   0  0  1
    9.7203   -0.7104    0.0000 C   0  0  0
    8.4180   -2.9599    0.0000 C   0  0  0
    4.5109    3.8124    0.0000 C   0  0  0
    7.1156    3.8124    0.0000 C   0  0  0
   11.0109   -1.4563    0.0000 C   0  0  0
    9.7085   -3.6940    0.0000 C   0  0  0
    4.4991    5.3278    0.0000 C   0  0  0
   10.9990   -2.9481    0.0000 O   0  0  0
    3.2677    6.2277    0.0000 N   0  0  0
    5.7067    6.2277    0.0000 N   0  0  0
    3.7176    7.6721    0.0000 N   0  0  0
    5.2331    7.6721    0.0000 C   0  0  0
    7.1275    5.7777    0.0000 C   0  0  0
  1  2  1
  2  3  1
  2  4  1
  2  5  1
  5  6  2
  5  7  1
  6  8  1
  6  9  1
  7 10  2
  8 11  1
  8 12  2
  9 13  1
 11 14  2
 13 15  1
 15 16  2
 15 17  1
 16 18  1
 17 19  2
 18 20  1
 18 21  2
 22 19  1
 20 23  2
 20 24  1
 22 25  1
 22 26  1  1  0
 23 27  1
 24 28  1
 25 29  1
 27 30  1
 29 31  2
 29 32  1
 31 33  1
 32 34  1
 32 35  1
 10 12  1
 11 13  1
 19 21  1
 28 30  1
 33 34  2
M  END
> <COMPOUND_NAMES>
Example 685 (R) (Page No: 763)

> <Reference>
WO2019148005

> <IC50_range_nM>
301-1000

> <smiles>
C[C@H](Cc1nncn1C)c1cc(C2CCOCC=2)nc(c1)N1Cc2c(cccc2C(F)(F)F)C1=O

$$$$
C22H22F3N5O2
  MOLSOFT 03092310482D

 32 35  0  0  1  0  0  0  0  0999 V2000
    0.0000   -0.0000    0.0000 F   0  0  0
    1.1018    1.0080    0.0000 C   0  0  0
    2.0981   -0.0938    0.0000 F   0  0  0
    2.2036    2.0278    0.0000 F   0  0  0
    0.0820    2.1333    0.0000 C   0  0  0
   -1.3948    1.8285    0.0000 C   0  0  0
    0.5275    3.5633    0.0000 C   0  0  0
   -2.4146    2.9538    0.0000 C   0  0  0
   -2.1567    0.5392    0.0000 C   0  0  0
   -0.4923    4.6886    0.0000 C   0  0  0
   -3.7977    2.3560    0.0000 C   0  0  0
   -1.9692    4.3838    0.0000 C   0  0  0
   -3.6336    0.8674    0.0000 N   0  0  0
   -5.1105    3.1179    0.0000 O   0  0  0
   -4.7589   -0.1289    0.0000 C   0  0  0
   -6.1889    0.3399    0.0000 N   0  0  0
   -4.4541   -1.5824    0.0000 C   0  0  0
   -7.3141   -0.6564    0.0000 C   0  0  0
   -5.5794   -2.5670    0.0000 C   0  0  0
   -8.7559   -0.1875    0.0000 O   0  0  0
   -7.0094   -2.1099    0.0000 C   0  0  0
   -5.2746   -4.0204    0.0000 C   0  0  1
   -9.8811   -1.1839    0.0000 C   0  0  0
   -6.3999   -5.0168    0.0000 C   0  0  0
   -3.8563   -4.4658    0.0000 C   0  0  0
  -11.3111   -0.7150    0.0000 C   0  0  0
   -6.0951   -6.4702    0.0000 C   0  0  0
   -4.7354   -7.0680    0.0000 N   0  0  0
   -7.1032   -7.5720    0.0000 N   0  0  0
   -4.8995   -8.5449    0.0000 N   0  0  0
   -6.3647   -8.8614    0.0000 C   0  0  0
   -8.6035   -7.4079    0.0000 C   0  0  0
  1  2  1
  2  3  1
  2  4  1
  2  5  1
  5  6  2
  5  7  1
  6  8  1
  6  9  1
  7 10  2
  8 11  1
  8 12  2
  9 13  1
 11 14  2
 13 15  1
 15 16  2
 15 17  1
 16 18  1
 17 19  2
 18 20  1
 18 21  2
 22 19  1
 20 23  1
 22 24  1
 22 25  1  6  0
 23 26  1
 24 27  1
 27 28  2
 27 29  1
 28 30  1
 29 31  1
 29 32  1
 10 12  1
 11 13  1
 19 21  1
 30 31  2
M  END
> <COMPOUND_NAMES>
Example 358 (R) (Page No: 543)

> <Reference>
WO2019148005

> <IC50_range_nM>
<100

> <smiles>
CCOc1cc(cc(n1)N1Cc2c(cccc2C(F)(F)F)C1=O)[C@H](C)Cc1nncn1C

$$$$
C23H24F3N5O2
  MOLSOFT 03092310482D

 33 36  0  0  1  0  0  0  0  0999 V2000
    0.0000   -0.0000    0.0000 F   0  0  0
    1.1018    1.0080    0.0000 C   0  0  0
    2.0980   -0.0938    0.0000 F   0  0  0
    2.2035    2.0277    0.0000 F   0  0  0
    0.0820    2.1332    0.0000 C   0  0  0
   -1.3948    1.8284    0.0000 C   0  0  0
    0.5274    3.5631    0.0000 C   0  0  0
   -2.4145    2.9536    0.0000 C   0  0  0
   -2.1566    0.5392    0.0000 C   0  0  0
   -0.4923    4.6883    0.0000 C   0  0  0
   -3.7975    2.3559    0.0000 C   0  0  0
   -1.9691    4.3836    0.0000 C   0  0  0
   -3.6334    0.8673    0.0000 N   0  0  0
   -5.1102    3.1177    0.0000 O   0  0  0
   -4.7586   -0.1289    0.0000 C   0  0  0
   -6.1886    0.3399    0.0000 N   0  0  0
   -4.4539   -1.5823    0.0000 C   0  0  0
   -7.3137   -0.6564    0.0000 C   0  0  0
   -5.5791   -2.5668    0.0000 C   0  0  0
   -8.7554   -0.1875    0.0000 O   0  0  0
   -7.0090   -2.1097    0.0000 C   0  0  0
   -5.2743   -4.0202    0.0000 C   0  0  1
   -9.8806   -1.1838    0.0000 C   0  0  0
   -6.3995   -5.0165    0.0000 C   0  0  0
   -3.8561   -4.4656    0.0000 C   0  0  0
  -11.3105   -0.7150    0.0000 C   0  0  0
   -6.0948   -6.4699    0.0000 C   0  0  0
  -12.4357   -1.7112    0.0000 C   0  0  0
   -4.7352   -7.0676    0.0000 N   0  0  0
   -7.1028   -7.5716    0.0000 N   0  0  0
   -4.8993   -8.5444    0.0000 N   0  0  0
   -6.3644   -8.8609    0.0000 C   0  0  0
   -8.6030   -7.4075    0.0000 C   0  0  0
  1  2  1
  2  3  1
  2  4  1
  2  5  1
  5  6  2
  5  7  1
  6  8  1
  6  9  1
  7 10  2
  8 11  1
  8 12  2
  9 13  1
 11 14  2
 13 15  1
 15 16  2
 15 17  1
 16 18  1
 17 19  2
 18 20  1
 18 21  2
 22 19  1
 20 23  1
 22 24  1
 22 25  1  6  0
 23 26  1
 24 27  1
 26 28  1
 27 29  2
 27 30  1
 29 31  1
 30 32  1
 30 33  1
 10 12  1
 11 13  1
 19 21  1
 31 32  2
M  END
> <COMPOUND_NAMES>
Example 688 (R) (Page No: 765)

> <Reference>
WO2019148005

> <IC50_range_nM>
301-1000

> <smiles>
CCCOc1cc(cc(n1)N1Cc2c(cccc2C(F)(F)F)C1=O)[C@H](C)Cc1nncn1C

$$$$
C22H22F3N5O3
  MOLSOFT 03092310482D

 33 36  0  0  1  0  0  0  0  0999 V2000
    0.0000   -0.0000    0.0000 F   0  0  0
    1.1033    1.0094    0.0000 C   0  0  0
    2.0892   -0.0939    0.0000 F   0  0  0
    2.2066    2.0188    0.0000 F   0  0  0
    0.0939    2.1361    0.0000 C   0  0  0
   -1.3850    1.8310    0.0000 C   0  0  0
    0.5399    3.5681    0.0000 C   0  0  0
   -2.3944    2.9577    0.0000 C   0  0  0
   -2.1479    0.5399    0.0000 C   0  0  0
   -0.4695    4.6948    0.0000 C   0  0  0
   -3.7793    2.3592    0.0000 C   0  0  0
   -1.9484    4.3897    0.0000 C   0  0  0
   -3.6268    0.8685    0.0000 N   0  0  0
   -5.0939    3.1221    0.0000 O   0  0  0
   -4.7535   -0.1174    0.0000 C   0  0  0
   -6.1854    0.3521    0.0000 N   0  0  0
   -4.4484   -1.5728    0.0000 C   0  0  0
   -7.3122   -0.6338    0.0000 C   0  0  0
   -5.5751   -2.5587    0.0000 C   0  0  0
   -8.7441   -0.1643    0.0000 O   0  0  0
   -7.0070   -2.0892    0.0000 C   0  0  0
   -5.2699   -4.0141    0.0000 C   0  0  1
   -9.0728    1.3146    0.0000 C   0  0  0
   -3.8615   -4.4601    0.0000 C   0  0  0
   -6.3967   -5.0000    0.0000 C   0  0  0
  -10.5047    1.7840    0.0000 C   0  0  0
   -3.5563   -5.9155    0.0000 C   0  0  0
  -10.8333    3.2629    0.0000 O   0  0  0
   -2.1948   -6.5141    0.0000 N   0  0  0
   -4.5657   -7.0188    0.0000 N   0  0  0
   -2.3592   -7.9930    0.0000 N   0  0  0
   -3.8263   -8.2981    0.0000 C   0  0  0
   -6.0681   -6.8545    0.0000 C   0  0  0
  1  2  1
  2  3  1
  2  4  1
  2  5  1
  5  6  2
  5  7  1
  6  8  1
  6  9  1
  7 10  2
  8 11  1
  8 12  2
  9 13  1
 11 14  2
 13 15  1
 15 16  2
 15 17  1
 16 18  1
 17 19  2
 18 20  1
 18 21  2
 22 19  1
 20 23  1
 22 24  1
 22 25  1  1  0
 23 26  1
 24 27  1
 26 28  1
 27 29  2
 27 30  1
 29 31  1
 30 32  1
 30 33  1
 10 12  1
 11 13  1
 19 21  1
 31 32  2
M  END
> <COMPOUND_NAMES>
Example 359 (R) (Page No: 544)

> <Reference>
WO2019148005

> <IC50_range_nM>
301-1000

> <smiles>
C[C@H](Cc1nncn1C)c1cc(nc(c1)OCCO)N1Cc2c(cccc2C(F)(F)F)C1=O

$$$$
C22H20F5N5O2
  MOLSOFT 03092310482D

 34 37  0  0  1  0  0  0  0  0999 V2000
    0.0000   -0.0000    0.0000 F   0  0  0
    1.1033    1.0094    0.0000 C   0  0  0
    2.0893   -0.0939    0.0000 F   0  0  0
    2.2067    2.0189    0.0000 F   0  0  0
    0.0939    2.1363    0.0000 C   0  0  0
   -1.3850    1.8311    0.0000 C   0  0  0
    0.5399    3.5683    0.0000 C   0  0  0
   -2.3945    2.9579    0.0000 C   0  0  0
   -2.1480    0.5399    0.0000 C   0  0  0
   -0.4695    4.6951    0.0000 C   0  0  0
   -3.7795    2.3593    0.0000 C   0  0  0
   -1.9485    4.3899    0.0000 C   0  0  0
   -3.6269    0.8686    0.0000 N   0  0  0
   -5.0941    3.1222    0.0000 O   0  0  0
   -4.7538   -0.1174    0.0000 C   0  0  0
   -6.1858    0.3521    0.0000 N   0  0  0
   -4.4486   -1.5728    0.0000 C   0  0  0
   -7.3126   -0.6338    0.0000 C   0  0  0
   -5.5754   -2.5588    0.0000 C   0  0  0
   -8.7446   -0.1643    0.0000 O   0  0  0
   -7.0074   -2.0893    0.0000 C   0  0  0
   -5.2702   -4.0143    0.0000 C   0  0  1
   -9.0732    1.3146    0.0000 C   0  0  0
   -3.8617   -4.4603    0.0000 C   0  0  0
   -6.3970   -5.0002    0.0000 C   0  0  0
  -10.5052    1.7841    0.0000 C   0  0  0
   -3.5565   -5.9158    0.0000 C   0  0  0
  -10.8339    3.2631    0.0000 F   0  0  0
  -11.6320    0.7982    0.0000 F   0  0  0
   -2.1949   -6.5144    0.0000 N   0  0  0
   -4.5660   -7.0191    0.0000 N   0  0  0
   -2.3593   -7.9934    0.0000 N   0  0  0
   -3.8265   -8.2985    0.0000 C   0  0  0
   -6.0684   -6.8548    0.0000 C   0  0  0
  1  2  1
  2  3  1
  2  4  1
  2  5  1
  5  6  2
  5  7  1
  6  8  1
  6  9  1
  7 10  2
  8 11  1
  8 12  2
  9 13  1
 11 14  2
 13 15  1
 15 16  2
 15 17  1
 16 18  1
 17 19  2
 18 20  1
 18 21  2
 22 19  1
 20 23  1
 22 24  1
 22 25  1  1  0
 23 26  1
 24 27  1
 26 28  1
 26 29  1
 27 30  2
 27 31  1
 30 32  1
 31 33  1
 31 34  1
 10 12  1
 11 13  1
 19 21  1
 32 33  2
M  END
> <COMPOUND_NAMES>
Example 356 (R) (Page No: 542)

> <Reference>
WO2019148005

> <IC50_range_nM>
<100

> <smiles>
C[C@H](Cc1nncn1C)c1cc(nc(c1)OCC(F)F)N1Cc2c(cccc2C(F)(F)F)C1=O

$$$$
C23H22F3N5O3
  MOLSOFT 03092310482D

 34 38  0  0  1  0  0  0  0  0999 V2000
    0.0000   -0.0000    0.0000 F   0  0  0
    1.1031    1.0093    0.0000 C   0  0  0
    2.0889   -0.0939    0.0000 F   0  0  0
    2.2063    2.0185    0.0000 F   0  0  0
    0.0939    2.1359    0.0000 C   0  0  0
   -1.3848    1.8307    0.0000 C   0  0  0
    0.5398    3.5676    0.0000 C   0  0  0
   -2.3940    2.9573    0.0000 C   0  0  0
   -2.1476    0.5398    0.0000 C   0  0  0
   -0.4694    4.6942    0.0000 C   0  0  0
   -3.7788    2.3588    0.0000 C   0  0  0
   -1.9481    4.3891    0.0000 C   0  0  0
   -3.6263    0.8684    0.0000 N   0  0  0
   -5.0932    3.1216    0.0000 O   0  0  0
   -4.7529   -0.1174    0.0000 C   0  0  0
   -6.1846    0.3521    0.0000 N   0  0  0
   -4.4477   -1.5726    0.0000 C   0  0  0
   -7.3112   -0.6337    0.0000 C   0  0  0
   -5.5744   -2.5583    0.0000 C   0  0  0
   -8.7429   -0.1643    0.0000 O   0  0  0
   -7.0061   -2.0889    0.0000 C   0  0  0
   -5.2692   -4.0135    0.0000 C   0  0  1
   -9.0715    1.3144    0.0000 C   0  0  0
   -3.8610   -4.4595    0.0000 C   0  0  0
   -6.3958   -4.9993    0.0000 C   0  0  0
  -10.3390    2.1359    0.0000 C   0  0  0
   -8.2618    2.5818    0.0000 C   0  0  0
   -3.5559   -5.9147    0.0000 C   0  0  0
   -9.5292    3.4033    0.0000 O   0  0  0
   -2.1945   -6.5132    0.0000 N   0  0  0
   -4.5651   -7.0178    0.0000 N   0  0  0
   -2.3588   -7.9919    0.0000 N   0  0  0
   -3.8258   -8.2970    0.0000 C   0  0  0
   -6.0672   -6.8535    0.0000 C   0  0  0
  1  2  1
  2  3  1
  2  4  1
  2  5  1
  5  6  2
  5  7  1
  6  8  1
  6  9  1
  7 10  2
  8 11  1
  8 12  2
  9 13  1
 11 14  2
 13 15  1
 15 16  2
 15 17  1
 16 18  1
 17 19  2
 18 20  1
 18 21  2
 22 19  1
 20 23  1
 22 24  1
 22 25  1  1  0
 23 26  1
 23 27  1
 24 28  1
 26 29  1
 28 30  2
 28 31  1
 30 32  1
 31 33  1
 31 34  1
 10 12  1
 11 13  1
 19 21  1
 27 29  1
 32 33  2
M  END
> <COMPOUND_NAMES>
Example 354 (R) (Page No: 541)

> <Reference>
WO2019148005

> <IC50_range_nM>
101-300

> <smiles>
C[C@H](Cc1nncn1C)c1cc(nc(c1)OC1COC1)N1Cc2c(cccc2C(F)(F)F)C1=O

$$$$
C24H24F3N5O3
  MOLSOFT 03092310482D

 35 39  0  0  1  0  0  0  0  0999 V2000
    0.0000   -0.0000    0.0000 F   0  0  0
    1.1030    1.0091    0.0000 C   0  0  0
    2.0886   -0.0939    0.0000 F   0  0  0
    2.2060    2.0182    0.0000 F   0  0  0
    0.0939    2.1356    0.0000 C   0  0  0
   -1.3846    1.8305    0.0000 C   0  0  0
    0.5398    3.5671    0.0000 C   0  0  0
   -2.3937    2.9569    0.0000 C   0  0  0
   -2.1473    0.5398    0.0000 C   0  0  0
   -0.4694    4.6935    0.0000 C   0  0  0
   -3.7783    2.3585    0.0000 C   0  0  0
   -1.9478    4.3885    0.0000 C   0  0  0
   -3.6258    0.8683    0.0000 N   0  0  0
   -5.0925    3.1212    0.0000 O   0  0  0
   -4.7522   -0.1173    0.0000 C   0  0  0
   -6.1837    0.3520    0.0000 N   0  0  0
   -4.4471   -1.5723    0.0000 C   0  0  0
   -7.3102   -0.6336    0.0000 C   0  0  0
   -5.5736   -2.5580    0.0000 C   0  0  0
   -8.7417   -0.1643    0.0000 O   0  0  0
   -7.0051   -2.0886    0.0000 C   0  0  0
   -5.2685   -4.0130    0.0000 C   0  0  1
   -9.0703    1.3142    0.0000 C   0  0  3
   -3.8604   -4.4589    0.0000 C   0  0  0
   -6.3949   -4.9986    0.0000 C   0  0  0
   -8.2606    2.5814    0.0000 C   0  0  3
  -10.3375    2.1356    0.0000 C   0  0  0
   -3.5554   -5.9139    0.0000 C   0  0  0
   -9.5279    3.4146    0.0000 O   0  0  0
   -6.8056    2.9100    0.0000 C   0  0  0
   -2.1942   -6.5123    0.0000 N   0  0  0
   -4.5645   -7.0168    0.0000 N   0  0  0
   -2.3585   -7.9908    0.0000 N   0  0  0
   -3.8252   -8.2958    0.0000 C   0  0  0
   -6.0664   -6.8526    0.0000 C   0  0  0
  1  2  1
  2  3  1
  2  4  1
  2  5  1
  5  6  2
  5  7  1
  6  8  1
  6  9  1
  7 10  2
  8 11  1
  8 12  2
  9 13  1
 11 14  2
 13 15  1
 15 16  2
 15 17  1
 16 18  1
 17 19  2
 18 20  1
 18 21  2
 22 19  1
 23 20  1
 22 24  1
 22 25  1  1  0
 23 26  1
 23 27  1
 24 28  1
 26 29  1
 26 30  1
 28 31  2
 28 32  1
 31 33  1
 32 34  1
 32 35  1
 10 12  1
 11 13  1
 19 21  1
 27 29  1
 33 34  2
M  END
> <COMPOUND_NAMES>
Example 355 (R) (Page No: 542)

> <Reference>
WO2019148005

> <IC50_range_nM>
301-1000

> <smiles>
CC1C(CO1)Oc1cc(cc(n1)N1Cc2c(cccc2C(F)(F)F)C1=O)[C@H](C)Cc1nncn1C

$$$$
C23H19F3N6OS
  MOLSOFT 03092310482D

 34 38  0  0  1  0  0  0  0  0999 V2000
    0.0000   -0.0000    0.0000 S   0  0  0
   -0.4713    1.4375    0.0000 C   0  0  0
    1.4847    0.0118    0.0000 C   0  0  0
   -1.9089    1.9089    0.0000 C   0  0  0
    0.7306    2.3331    0.0000 C   0  0  0
    1.9324    1.4493    0.0000 N   0  0  0
   -3.0283    0.9191    0.0000 N   0  0  0
   -2.2270    3.3818    0.0000 C   0  0  0
   -4.4658    1.3904    0.0000 C   0  0  0
   -3.6645    3.8531    0.0000 C   0  0  0
   -5.5852    0.4006    0.0000 N   0  0  0
   -4.7839    2.8633    0.0000 C   0  0  0
   -3.9827    5.3260    0.0000 C   0  0  1
   -5.4438   -1.0723    0.0000 C   0  0  0
   -7.0581    0.7188    0.0000 C   0  0  0
   -5.4202    5.7973    0.0000 C   0  0  0
   -2.8869    6.3393    0.0000 C   0  0  0
   -4.1594   -1.8146    0.0000 O   0  0  0
   -6.8224   -1.6732    0.0000 C   0  0  0
   -7.8240   -0.5656    0.0000 C   0  0  0
   -5.7384    7.2702    0.0000 C   0  0  0
   -7.2937   -3.0872    0.0000 C   0  0  0
   -9.2969   -0.8602    0.0000 C   0  0  0
   -7.1170    7.8947    0.0000 N   0  0  0
   -4.7486    8.3896    0.0000 N   0  0  0
   -8.7666   -3.3818    0.0000 C   0  0  0
   -9.7682   -2.2741    0.0000 C   0  0  0
  -10.3102    0.2592    0.0000 C   0  0  0
   -6.9756    9.3911    0.0000 N   0  0  0
   -5.5027    9.6975    0.0000 C   0  0  0
   -3.2757    8.2482    0.0000 C   0  0  0
   -9.2144    1.2726    0.0000 F   0  0  0
  -11.3236    1.3786    0.0000 F   0  0  0
  -11.4296   -0.7306    0.0000 F   0  0  0
  1  2  1
  1  3  1
  2  4  1
  2  5  2
  3  6  2
  4  7  2
  4  8  1
  7  9  1
  8 10  2
  9 11  1
  9 12  2
 13 10  1
 11 14  1
 11 15  1
 13 16  1
 13 17  1  1  0
 14 18  2
 14 19  1
 15 20  1
 16 21  1
 19 22  1
 20 23  1
 21 24  2
 21 25  1
 22 26  2
 23 27  2
 23 28  1
 24 29  1
 25 30  1
 25 31  1
 28 32  1
 28 33  1
 28 34  1
  5  6  1
 10 12  1
 19 20  2
 26 27  1
 29 30  2
M  END
> <COMPOUND_NAMES>
Example 682 (R) (Page No: 762)

> <Reference>
WO2019148005

> <IC50_range_nM>
301-1000

> <smiles>
C[C@H](Cc1nncn1C)c1cc(c2cncs2)nc(c1)N1Cc2c(cccc2C(F)(F)F)C1=O

$$$$
C24H21F3N6O
  MOLSOFT 03092310482D

 34 38  0  0  1  0  0  0  0  0999 V2000
    0.0000   -0.0000    0.0000 F   0  0  0
    1.0980    1.0154    0.0000 C   0  0  0
    2.0898   -0.0826    0.0000 F   0  0  0
    2.1961    2.0308    0.0000 F   0  0  0
    0.0826    2.1371    0.0000 C   0  0  0
   -1.3932    1.8419    0.0000 C   0  0  0
    0.5313    3.5775    0.0000 C   0  0  0
   -2.4086    2.9635    0.0000 C   0  0  0
   -2.1489    0.5549    0.0000 C   0  0  0
   -0.4841    4.6992    0.0000 C   0  0  0
   -3.7900    2.3614    0.0000 C   0  0  0
   -1.9600    4.4040    0.0000 C   0  0  0
   -3.6247    0.8737    0.0000 N   0  0  0
   -0.0354    6.1396    0.0000 C   0  0  0
   -5.1006    3.1288    0.0000 O   0  0  0
   -4.7464   -0.1181    0.0000 C   0  0  0
    1.3814    6.6119    0.0000 N   0  0  0
   -0.9327    7.3675    0.0000 C   0  0  0
   -4.4512   -1.5703    0.0000 C   0  0  0
   -6.1868    0.3542    0.0000 C   0  0  0
    1.3696    8.1232    0.0000 N   0  0  0
   -0.0590    8.5955    0.0000 C   0  0  0
   -5.5729   -2.5621    0.0000 C   0  0  0
   -7.3085   -0.6376    0.0000 C   0  0  0
   -7.0133   -2.0898    0.0000 C   0  0  0
   -5.2777   -4.0144    0.0000 C   0  0  1
   -3.8609   -4.4630    0.0000 C   0  0  0
   -6.3994   -5.0061    0.0000 C   0  0  0
   -3.5657   -5.9153    0.0000 C   0  0  0
   -2.2079   -6.5174    0.0000 N   0  0  0
   -4.5811   -7.0133    0.0000 N   0  0  0
   -2.3732   -7.9933    0.0000 N   0  0  0
   -3.8373   -8.3003    0.0000 C   0  0  0
   -6.0806   -6.8480    0.0000 C   0  0  0
  1  2  1
  2  3  1
  2  4  1
  2  5  1
  5  6  2
  5  7  1
  6  8  1
  6  9  1
  7 10  2
  8 11  1
  8 12  2
  9 13  1
 10 14  1
 11 15  2
 13 16  1
 14 17  1
 14 18  2
 16 19  2
 16 20  1
 17 21  1
 18 22  1
 19 23  1
 20 24  2
 23 25  2
 26 23  1
 26 27  1
 26 28  1  1  0
 27 29  1
 29 30  2
 29 31  1
 30 32  1
 31 33  1
 31 34  1
 10 12  1
 11 13  1
 21 22  2
 24 25  1
 32 33  2
M  END
> <COMPOUND_NAMES>
Example 279 (R) (Page No: 487)

> <Reference>
WO2019148005

> <IC50_range_nM>
<100

> <smiles>
C[C@H](Cc1nncn1C)c1cccc(c1)N1Cc2c(cc(cc2C(F)(F)F)c2ccn[nH]2)C1=O

$$$$
C25H23F3N6O
  MOLSOFT 03092310482D

 35 39  0  0  1  0  0  0  0  0999 V2000
    0.0000   -0.0000    0.0000 F   0  0  0
    1.0983    1.0156    0.0000 C   0  0  0
    2.0903   -0.0827    0.0000 F   0  0  0
    2.1965    2.0312    0.0000 F   0  0  0
    0.0827    2.1375    0.0000 C   0  0  0
   -1.3935    1.8423    0.0000 C   0  0  0
    0.5314    3.5782    0.0000 C   0  0  0
   -2.4091    2.9642    0.0000 C   0  0  0
   -2.1493    0.5550    0.0000 C   0  0  0
   -0.4842    4.7001    0.0000 C   0  0  0
   -3.7908    2.3619    0.0000 C   0  0  0
   -1.9604    4.4049    0.0000 C   0  0  0
   -3.6255    0.8739    0.0000 N   0  0  0
   -0.0354    6.1409    0.0000 C   0  0  0
   -5.1017    3.1295    0.0000 O   0  0  0
   -4.7474   -0.1181    0.0000 C   0  0  0
   -0.9329    7.3691    0.0000 N   0  0  0
    1.3817    6.6133    0.0000 C   0  0  0
   -4.4521   -1.5707    0.0000 C   0  0  0
   -6.1881    0.3543    0.0000 C   0  0  0
   -0.0590    8.5972    0.0000 N   0  0  0
    1.3699    8.1249    0.0000 C   0  0  0
    2.5863    5.7394    0.0000 C   0  0  0
   -5.5740   -2.5626    0.0000 C   0  0  0
   -7.3100   -0.6377    0.0000 C   0  0  0
   -7.0148   -2.0903    0.0000 C   0  0  0
   -5.2788   -4.0152    0.0000 C   0  0  1
   -3.8617   -4.4640    0.0000 C   0  0  0
   -6.4007   -5.0072    0.0000 C   0  0  0
   -3.5664   -5.9165    0.0000 C   0  0  0
   -2.2084   -6.5188    0.0000 N   0  0  0
   -4.5820   -7.0148    0.0000 N   0  0  0
   -2.3737   -7.9950    0.0000 N   0  0  0
   -3.8381   -8.3020    0.0000 C   0  0  0
   -6.0818   -6.8495    0.0000 C   0  0  0
  1  2  1
  2  3  1
  2  4  1
  2  5  1
  5  6  2
  5  7  1
  6  8  1
  6  9  1
  7 10  2
  8 11  1
  8 12  2
  9 13  1
 10 14  1
 11 15  2
 13 16  1
 14 17  2
 14 18  1
 16 19  2
 16 20  1
 17 21  1
 18 22  2
 18 23  1
 19 24  1
 20 25  2
 24 26  2
 27 24  1
 27 28  1
 27 29  1  1  0
 28 30  1
 30 31  2
 30 32  1
 31 33  1
 32 34  1
 32 35  1
 10 12  1
 11 13  1
 21 22  1
 25 26  1
 33 34  2
M  END
> <COMPOUND_NAMES>
Example 377 (R) (Page No: 556)

> <Reference>
WO2019148005

> <IC50_range_nM>
<100

> <smiles>
Cc1c[nH]nc1c1cc2C(N(Cc2c(c1)C(F)(F)F)c1cccc(c1)[C@H](C)Cc1nncn1C)=O

$$$$
C25H23F3N6O
  MOLSOFT 03092310482D

 35 39  0  0  1  0  0  0  0  0999 V2000
    0.0000   -0.0000    0.0000 F   0  0  0
    1.0978    1.0152    0.0000 C   0  0  0
    2.0894   -0.0826    0.0000 F   0  0  0
    2.1957    2.0304    0.0000 F   0  0  0
    0.0826    2.1366    0.0000 C   0  0  0
   -1.3930    1.8415    0.0000 C   0  0  0
    0.5312    3.5768    0.0000 C   0  0  0
   -2.4082    2.9630    0.0000 C   0  0  0
   -2.1484    0.5548    0.0000 C   0  0  0
   -0.4840    4.6983    0.0000 C   0  0  0
   -3.7893    2.3609    0.0000 C   0  0  0
   -1.9596    4.4031    0.0000 C   0  0  0
   -3.6240    0.8735    0.0000 N   0  0  0
   -0.0354    6.1384    0.0000 C   0  0  0
   -5.0996    3.1282    0.0000 O   0  0  0
   -4.7455   -0.1180    0.0000 C   0  0  0
   -0.9326    7.3661    0.0000 C   0  0  0
    1.3811    6.6106    0.0000 C   0  0  0
   -4.4504   -1.5700    0.0000 C   0  0  0
   -6.1856    0.3541    0.0000 C   0  0  0
   -0.0590    8.5938    0.0000 N   0  0  0
   -2.4436    7.3779    0.0000 C   0  0  0
    1.3693    8.1216    0.0000 N   0  0  0
   -5.5718   -2.5616    0.0000 C   0  0  0
   -7.3071   -0.6375    0.0000 C   0  0  0
   -7.0120   -2.0894    0.0000 C   0  0  0
   -5.2767   -4.0136    0.0000 C   0  0  1
   -3.8601   -4.4622    0.0000 C   0  0  0
   -6.3981   -5.0052    0.0000 C   0  0  0
   -3.5650   -5.9141    0.0000 C   0  0  0
   -2.2075   -6.5162    0.0000 N   0  0  0
   -4.5802   -7.0120    0.0000 N   0  0  0
   -2.3727   -7.9918    0.0000 N   0  0  0
   -3.8365   -8.2987    0.0000 C   0  0  0
   -6.0794   -6.8467    0.0000 C   0  0  0
  1  2  1
  2  3  1
  2  4  1
  2  5  1
  5  6  2
  5  7  1
  6  8  1
  6  9  1
  7 10  2
  8 11  1
  8 12  2
  9 13  1
 10 14  1
 11 15  2
 13 16  1
 14 17  2
 14 18  1
 16 19  2
 16 20  1
 17 21  1
 17 22  1
 18 23  2
 19 24  1
 20 25  2
 24 26  2
 27 24  1
 27 28  1
 27 29  1  1  0
 28 30  1
 30 31  2
 30 32  1
 31 33  1
 32 34  1
 32 35  1
 10 12  1
 11 13  1
 21 23  1
 25 26  1
 33 34  2
M  END
> <COMPOUND_NAMES>
Example 381 (R) (Page No: 559)

> <Reference>
WO2019148005

> <IC50_range_nM>
<100

> <smiles>
Cc1c(cn[nH]1)c1cc2C(N(Cc2c(c1)C(F)(F)F)c1cccc(c1)[C@H](C)Cc1nncn1C)=O

$$$$
C26H25F3N6O
  MOLSOFT 03092310482D

 36 40  0  0  1  0  0  0  0  0999 V2000
    0.0000   -0.0000    0.0000 F   0  0  0
    1.0981    1.0154    0.0000 C   0  0  0
    2.0899   -0.0826    0.0000 F   0  0  0
    2.1961    2.0308    0.0000 F   0  0  0
    0.0826    2.1371    0.0000 C   0  0  0
   -1.3932    1.8419    0.0000 C   0  0  0
    0.5313    3.5776    0.0000 C   0  0  0
   -2.4087    2.9636    0.0000 C   0  0  0
   -2.1489    0.5549    0.0000 C   0  0  0
   -0.4841    4.6992    0.0000 C   0  0  0
   -3.7901    2.3614    0.0000 C   0  0  0
   -1.9600    4.4041    0.0000 C   0  0  0
   -3.6248    0.8737    0.0000 N   0  0  0
   -0.0354    6.1397    0.0000 C   0  0  0
   -5.1007    3.1289    0.0000 O   0  0  0
   -4.7465   -0.1181    0.0000 C   0  0  0
    1.3814    6.6120    0.0000 C   0  0  0
   -0.9328    7.3676    0.0000 C   0  0  0
   -4.4513   -1.5703    0.0000 C   0  0  0
   -6.1869    0.3542    0.0000 C   0  0  0
    1.3696    8.1233    0.0000 N   0  0  0
    2.5858    5.7383    0.0000 C   0  0  0
   -0.0590    8.5956    0.0000 N   0  0  0
   -2.4441    7.3794    0.0000 C   0  0  0
   -5.5730   -2.5621    0.0000 C   0  0  0
   -7.3086   -0.6376    0.0000 C   0  0  0
   -7.0134   -2.0899    0.0000 C   0  0  0
   -5.2778   -4.0144    0.0000 C   0  0  1
   -3.8609   -4.4631    0.0000 C   0  0  0
   -6.3995   -5.0062    0.0000 C   0  0  0
   -3.5657   -5.9154    0.0000 C   0  0  0
   -2.2079   -6.5175    0.0000 N   0  0  0
   -4.5812   -7.0134    0.0000 N   0  0  0
   -2.3732   -7.9934    0.0000 N   0  0  0
   -3.8373   -8.3004    0.0000 C   0  0  0
   -6.0807   -6.8481    0.0000 C   0  0  0
  1  2  1
  2  3  1
  2  4  1
  2  5  1
  5  6  2
  5  7  1
  6  8  1
  6  9  1
  7 10  2
  8 11  1
  8 12  2
  9 13  1
 10 14  1
 11 15  2
 13 16  1
 14 17  1
 14 18  2
 16 19  2
 16 20  1
 17 21  2
 17 22  1
 18 23  1
 18 24  1
 19 25  1
 20 26  2
 25 27  2
 28 25  1
 28 29  1
 28 30  1  1  0
 29 31  1
 31 32  2
 31 33  1
 32 34  1
 33 35  1
 33 36  1
 10 12  1
 11 13  1
 21 23  1
 26 27  1
 34 35  2
M  END
> <COMPOUND_NAMES>
Example 378 (R) (Page No: 557)

> <Reference>
WO2019148005

> <IC50_range_nM>
<100

> <smiles>
Cc1c(c2cc3C(N(Cc3c(c2)C(F)(F)F)c2cccc(c2)[C@H](C)Cc2nncn2C)=O)c(C)[nH]n1

$$$$
C27H25F3N6O2
  MOLSOFT 03092310482D

 38 43  0  0  0  0  0  0  0  0999 V2000
    0.0000   -0.0000    0.0000 F   0  0  0
    1.0977    1.0150    0.0000 C   0  0  0
    2.0891   -0.0826    0.0000 F   0  0  0
    2.1953    2.0301    0.0000 F   0  0  0
    0.0826    2.1363    0.0000 C   0  0  0
   -1.3927    1.8412    0.0000 C   0  0  0
    0.5311    3.5762    0.0000 C   0  0  0
   -2.4078    2.9625    0.0000 C   0  0  0
   -2.1599    0.5547    0.0000 C   0  0  0
   -0.4839    4.6975    0.0000 C   0  0  0
   -3.7887    2.3605    0.0000 C   0  0  0
   -1.9592    4.4024    0.0000 C   0  0  0
   -3.6352    0.8734    0.0000 N   0  0  0
   -0.0354    6.1374    0.0000 C   0  0  0
   -5.0988    3.1159    0.0000 O   0  0  0
   -4.7565   -0.1180    0.0000 C   0  0  0
    1.3809    6.6095    0.0000 C   0  0  0
   -0.9324    7.3649    0.0000 C   0  0  0
   -4.4614   -1.5698    0.0000 C   0  0  0
   -6.1964    0.3541    0.0000 C   0  0  0
    1.3691    8.1203    0.0000 N   0  0  0
    2.5848    5.7361    0.0000 C   0  0  0
   -0.0590    8.5924    0.0000 N   0  0  0
   -2.4432    7.3767    0.0000 C   0  0  0
   -5.5827   -2.5612    0.0000 C   0  0  0
   -7.3177   -0.6373    0.0000 C   0  0  0
   -7.0226   -2.0891    0.0000 C   0  0  0
   -5.2876   -4.0129    0.0000 C   0  0  0
   -4.0365   -4.8155    0.0000 C   0  0  0
   -6.1138   -5.2640    0.0000 C   0  0  0
   -6.7275   -3.5408    0.0000 C   0  0  0
   -4.8627   -6.0666    0.0000 O   0  0  0
   -7.8488   -4.5322    0.0000 C   0  0  0
   -9.3241   -4.2136    0.0000 N   0  0  0
   -7.7072   -6.0076    0.0000 N   0  0  0
  -10.0795   -5.5001    0.0000 N   0  0  0
   -9.0881   -6.6095    0.0000 C   0  0  0
   -6.4207   -6.7393    0.0000 C   0  0  0
  1  2  1
  2  3  1
  2  4  1
  2  5  1
  5  6  2
  5  7  1
  6  8  1
  6  9  1
  7 10  2
  8 11  1
  8 12  2
  9 13  1
 10 14  1
 11 15  2
 13 16  1
 14 17  1
 14 18  2
 16 19  2
 16 20  1
 17 21  2
 17 22  1
 18 23  1
 18 24  1
 19 25  1
 20 26  2
 25 27  2
 25 28  1
 28 29  1
 28 30  1
 28 31  1
 29 32  1
 31 33  1
 33 34  2
 33 35  1
 34 36  1
 35 37  1
 35 38  1
 10 12  1
 11 13  1
 21 23  1
 26 27  1
 30 32  1
 36 37  2
M  END
> <COMPOUND_NAMES>
Example 385 (Page No: 563)

> <Reference>
WO2019148005

> <IC50_range_nM>
<100

> <smiles>
Cc1c(c2cc3C(N(Cc3c(c2)C(F)(F)F)c2cccc(c2)C2(Cc3nncn3C)COC2)=O)c(C)[nH]n1

$$$$
C24H22F3N7O
  MOLSOFT 03092310482D

 35 39  0  0  1  0  0  0  0  0999 V2000
    0.0000   -0.0000    0.0000 F   0  0  0
   -1.1260    1.0193    0.0000 C   0  0  0
   -0.1304    2.1453    0.0000 F   0  0  0
   -2.2520    2.0387    0.0000 F   0  0  0
   -2.1453   -0.0830    0.0000 C   0  0  0
   -1.6949   -1.5053    0.0000 C   0  0  0
   -3.6269    0.2371    0.0000 C   0  0  0
   -2.7143   -2.6076    0.0000 C   0  0  0
   -0.3319   -2.1098    0.0000 C   0  0  0
   -4.6462   -0.8652    0.0000 C   0  0  0
   -1.9675   -3.8995    0.0000 C   0  0  0
   -4.1958   -2.2876    0.0000 C   0  0  0
   -0.4978   -3.5914    0.0000 N   0  0  0
   -2.5957   -5.2626    0.0000 O   0  0  0
    0.6045   -4.5870    0.0000 C   0  0  0
    0.2845   -6.0449    0.0000 N   0  0  0
    2.0268   -4.1129    0.0000 C   0  0  0
    1.3868   -7.0405    0.0000 C   0  0  0
    3.1291   -5.1085    0.0000 C   0  0  0
    1.0667   -8.4984    0.0000 C   0  0  0
    2.8091   -6.5664    0.0000 C   0  0  0
    4.5514   -4.6344    0.0000 C   0  0  1
    2.0624   -9.6007    0.0000 N   0  0  0
   -0.3200   -9.1028    0.0000 C   0  0  0
    4.8477   -3.1528    0.0000 C   0  0  0
    5.6537   -5.6300    0.0000 C   0  0  0
    1.3038  -10.8926    0.0000 N   0  0  0
   -0.1778  -10.5844    0.0000 C   0  0  0
   -1.6357   -8.3324    0.0000 C   0  0  0
    6.2701   -2.6787    0.0000 C   0  0  0
    6.7205   -1.2327    0.0000 N   0  0  0
    7.4790   -3.5558    0.0000 N   0  0  0
    8.2139   -1.2208    0.0000 N   0  0  0
    8.6880   -2.6550    0.0000 C   0  0  0
    7.4672   -5.0492    0.0000 C   0  0  0
  1  2  1
  2  3  1
  2  4  1
  2  5  1
  5  6  2
  5  7  1
  6  8  1
  6  9  1
  7 10  2
  8 11  1
  8 12  2
  9 13  1
 11 14  2
 13 15  1
 15 16  2
 15 17  1
 16 18  1
 17 19  2
 18 20  1
 18 21  2
 22 19  1
 20 23  1
 20 24  2
 22 25  1
 22 26  1  1  0
 23 27  1
 24 28  1
 24 29  1
 25 30  1
 30 31  2
 30 32  1
 31 33  1
 32 34  1
 32 35  1
 10 12  1
 11 13  1
 19 21  1
 27 28  2
 33 34  2
M  END
> <COMPOUND_NAMES>
Example 683 (R) (Page No: 763)

> <Reference>
WO2019148005

> <IC50_range_nM>
101-300

> <smiles>
Cc1cn[nH]c1c1cc(cc(n1)N1Cc2c(cccc2C(F)(F)F)C1=O)[C@H](C)Cc1nncn1C

$$$$
C23H20F3N7O
  MOLSOFT 03092310482D

 34 38  0  0  1  0  0  0  0  0999 V2000
    0.0000   -0.0000    0.0000 F   0  0  0
   -1.1244   -0.9942    0.0000 C   0  0  0
   -2.1423    0.1302    0.0000 F   0  0  0
   -2.2488   -1.9884    0.0000 F   0  0  0
   -0.1302   -2.0950    0.0000 C   0  0  0
    1.3256   -1.7754    0.0000 C   0  0  0
   -0.6036   -3.5153    0.0000 C   0  0  0
    2.3198   -2.8761    0.0000 C   0  0  0
    2.0713   -0.4616    0.0000 C   0  0  0
    0.3906   -4.6160    0.0000 C   0  0  0
    3.6810   -2.2488    0.0000 C   0  0  0
    1.8464   -4.2964    0.0000 C   0  0  0
    3.5271   -0.7575    0.0000 N   0  0  0
    4.9711   -2.9945    0.0000 O   0  0  0
    4.6278    0.2604    0.0000 C   0  0  0
    6.0482   -0.1894    0.0000 N   0  0  0
    4.3083    1.7399    0.0000 C   0  0  0
    7.1489    0.8285    0.0000 C   0  0  0
    5.4090    2.7578    0.0000 C   0  0  0
    8.5692    0.3787    0.0000 C   0  0  0
    6.8293    2.3080    0.0000 C   0  0  0
    5.0894    4.2373    0.0000 C   0  0  1
    9.7765    1.2783    0.0000 C   0  0  0
    9.0190   -1.0416    0.0000 C   0  0  0
    3.6455    4.7107    0.0000 C   0  0  0
    6.1902    5.2551    0.0000 C   0  0  0
   10.9837    0.4024    0.0000 N   0  0  0
   10.5103   -1.0297    0.0000 N   0  0  0
    3.3259    6.1902    0.0000 C   0  0  0
    1.9411    6.8175    0.0000 N   0  0  0
    4.3201    7.3146    0.0000 N   0  0  0
    2.0831    8.3206    0.0000 N   0  0  0
    3.5626    8.6284    0.0000 C   0  0  0
    5.7996    7.1726    0.0000 C   0  0  0
  1  2  1
  2  3  1
  2  4  1
  2  5  1
  5  6  2
  5  7  1
  6  8  1
  6  9  1
  7 10  2
  8 11  1
  8 12  2
  9 13  1
 11 14  2
 13 15  1
 15 16  2
 15 17  1
 16 18  1
 17 19  2
 18 20  1
 18 21  2
 22 19  1
 20 23  1
 20 24  2
 22 25  1
 22 26  1  1  0
 23 27  2
 24 28  1
 25 29  1
 29 30  2
 29 31  1
 30 32  1
 31 33  1
 31 34  1
 10 12  1
 11 13  1
 19 21  1
 27 28  1
 32 33  2
M  END
> <COMPOUND_NAMES>
Example 684 (R) (Page No: 763)

> <Reference>
WO2019148005

> <IC50_range_nM>
301-1000

> <smiles>
C[C@H](Cc1nncn1C)c1cc(c2cn[nH]c2)nc(c1)N1Cc2c(cccc2C(F)(F)F)C1=O

$$$$
C24H21F3N6O
  MOLSOFT 03092310482D

 34 38  0  0  1  0  0  0  0  0999 V2000
    0.0000   -0.0000    0.0000 F   0  0  0
    1.0980    1.0154    0.0000 C   0  0  0
    2.0898   -0.0826    0.0000 F   0  0  0
    2.1961    2.0308    0.0000 F   0  0  0
    0.0826    2.1371    0.0000 C   0  0  0
   -1.3932    1.8419    0.0000 C   0  0  0
    0.5313    3.5775    0.0000 C   0  0  0
   -2.4086    2.9635    0.0000 C   0  0  0
   -2.1489    0.5549    0.0000 C   0  0  0
   -0.4841    4.6992    0.0000 C   0  0  0
   -3.7900    2.3614    0.0000 C   0  0  0
   -1.9600    4.4040    0.0000 C   0  0  0
   -3.6247    0.8737    0.0000 N   0  0  0
   -0.0354    6.1396    0.0000 N   0  0  0
   -5.1006    3.1288    0.0000 O   0  0  0
   -4.7464   -0.1181    0.0000 C   0  0  0
    1.3814    6.6119    0.0000 N   0  0  0
   -0.9327    7.3675    0.0000 C   0  0  0
   -4.4512   -1.5703    0.0000 C   0  0  0
   -6.1868    0.3542    0.0000 C   0  0  0
    1.3696    8.1232    0.0000 C   0  0  0
   -0.0590    8.5955    0.0000 C   0  0  0
   -5.5729   -2.5621    0.0000 C   0  0  0
   -7.3085   -0.6376    0.0000 C   0  0  0
   -7.0133   -2.0898    0.0000 C   0  0  0
   -5.2777   -4.0144    0.0000 C   0  0  1
   -3.8609   -4.4630    0.0000 C   0  0  0
   -6.3994   -5.0061    0.0000 C   0  0  0
   -3.5657   -5.9153    0.0000 C   0  0  0
   -2.2079   -6.5174    0.0000 N   0  0  0
   -4.5811   -7.0133    0.0000 N   0  0  0
   -2.3732   -7.9933    0.0000 N   0  0  0
   -3.8373   -8.3003    0.0000 C   0  0  0
   -6.0806   -6.8480    0.0000 C   0  0  0
  1  2  1
  2  3  1
  2  4  1
  2  5  1
  5  6  2
  5  7  1
  6  8  1
  6  9  1
  7 10  2
  8 11  1
  8 12  2
  9 13  1
 10 14  1
 11 15  2
 13 16  1
 14 17  1
 14 18  1
 16 19  2
 16 20  1
 17 21  2
 18 22  2
 19 23  1
 20 24  2
 23 25  2
 26 23  1
 26 27  1
 26 28  1  1  0
 27 29  1
 29 30  2
 29 31  1
 30 32  1
 31 33  1
 31 34  1
 10 12  1
 11 13  1
 21 22  1
 24 25  1
 32 33  2
M  END
> <COMPOUND_NAMES>
Example 384 (R) (Page No: 562)

> <Reference>
WO2019148005

> <IC50_range_nM>
<100

> <smiles>
C[C@H](Cc1nncn1C)c1cccc(c1)N1Cc2c(cc(cc2C(F)(F)F)n2cccn2)C1=O

$$$$
C30H30F3N7O2
  MOLSOFT 03092310482D

 42 48  0  0  0  0  0  0  0  0999 V2000
    0.0000   -0.0000    0.0000 F   0  0  0
    0.7311    1.3089    0.0000 C   0  0  0
    2.0165    0.5778    0.0000 F   0  0  0
    1.4622    2.6179    0.0000 F   0  0  0
   -0.5778    2.0636    0.0000 C   0  0  0
   -0.5896    3.5730    0.0000 C   0  0  0
   -1.8867    1.3325    0.0000 C   0  0  0
   -1.8985    4.3277    0.0000 C   0  0  0
    0.5071    4.5871    0.0000 C   0  0  0
   -3.1957    2.0872    0.0000 C   0  0  0
   -1.6037    5.8017    0.0000 C   0  0  0
   -3.2075    3.5966    0.0000 C   0  0  0
   -0.1179    5.9668    0.0000 N   0  0  0
   -4.5046    1.3561    0.0000 C   0  0  0
   -2.6179    6.9220    0.0000 O   0  0  0
    0.6132    7.2757    0.0000 C   0  0  0
   -4.5164   -0.1297    0.0000 N   0  0  0
   -0.1415    8.5847    0.0000 C   0  0  0
    2.0990    7.2875    0.0000 C   0  0  0
   -5.8253   -0.8608    0.0000 C   0  0  0
   -3.2310   -0.8608    0.0000 C   0  0  0
    0.5896    9.8936    0.0000 C   0  0  0
    2.8301    8.5965    0.0000 C   0  0  0
   -5.8371   -2.3466    0.0000 C   0  0  0
   -7.2639   -0.3891    0.0000 C   0  0  0
   -3.2428   -2.3466    0.0000 C   0  0  0
    2.0754    9.9054    0.0000 C   0  0  0
   -0.1651   11.2025    0.0000 C   0  0  0
   -7.2757   -2.7947    0.0000 N   0  0  0
   -4.5518   -3.0777    0.0000 C   0  0  0
   -8.1601   -1.5919    0.0000 N   0  0  0
   -1.6273   11.6034    0.0000 C   0  0  0
    0.2123   12.6647    0.0000 C   0  0  0
    1.3207   11.2143    0.0000 C   0  0  0
   -9.6695   -1.5801    0.0000 C   0  0  0
   -1.2500   13.0657    0.0000 O   0  0  0
    2.0636   12.5232    0.0000 C   0  0  0
    1.4386   13.9029    0.0000 N   0  0  0
    3.5376   12.6883    0.0000 N   0  0  0
    2.5353   14.9170    0.0000 N   0  0  0
    3.8324   14.1623    0.0000 C   0  0  0
    4.5282   11.5917    0.0000 C   0  0  0
  1  2  1
  2  3  1
  2  4  1
  2  5  1
  5  6  2
  5  7  1
  6  8  1
  6  9  1
  7 10  2
  8 11  1
  8 12  2
  9 13  1
 10 14  1
 11 15  2
 13 16  1
 14 17  1
 16 18  2
 16 19  1
 17 20  1
 17 21  1
 18 22  1
 19 23  2
 20 24  1
 20 25  2
 21 26  1
 22 27  2
 22 28  1
 24 29  2
 24 30  1
 25 31  1
 28 32  1
 28 33  1
 28 34  1
 31 35  1
 32 36  1
 34 37  1
 37 38  2
 37 39  1
 38 40  1
 39 41  1
 39 42  1
 10 12  1
 11 13  1
 23 27  1
 26 30  1
 29 31  1
 33 36  1
 40 41  2
M  END
> <COMPOUND_NAMES>
Example 652 (Page No: 743)

> <Reference>
WO2019148005

> <IC50_range_nM>
<100

> <smiles>
Cn1cnnc1CC1(COC1)c1cccc(c1)N1Cc2c(cc(CN3CCCc4c3cn(C)n4)cc2C(F)(F)F)C1=O

$$$$
C30H30F3N7O2
  MOLSOFT 03092310482D

 42 48  0  0  0  0  0  0  0  0999 V2000
    0.0000   -0.0000    0.0000 F   0  0  0
    1.1052    1.0111    0.0000 C   0  0  0
    2.0928   -0.0941    0.0000 F   0  0  0
    2.2103    2.0222    0.0000 F   0  0  0
    0.0941    2.1398    0.0000 C   0  0  0
   -1.3873    1.8341    0.0000 C   0  0  0
    0.5408    3.5742    0.0000 C   0  0  0
   -2.3985    2.9628    0.0000 C   0  0  0
   -2.1516    0.5408    0.0000 C   0  0  0
   -0.4703    4.7029    0.0000 C   0  0  0
   -3.7858    2.3632    0.0000 C   0  0  0
   -1.9517    4.3972    0.0000 C   0  0  0
   -3.6330    0.8700    0.0000 N   0  0  0
   -0.0235    6.1372    0.0000 C   0  0  0
   -5.1026    3.1274    0.0000 O   0  0  0
   -4.7617   -0.1176    0.0000 C   0  0  0
    1.4344    6.4664    0.0000 N   0  0  0
   -4.4560   -1.5755    0.0000 C   0  0  0
   -6.1960    0.3527    0.0000 C   0  0  0
    2.4220    5.3613    0.0000 C   0  0  0
    1.8811    7.9008    0.0000 C   0  0  0
   -5.5847   -2.5631    0.0000 C   0  0  0
   -7.3247   -0.6349    0.0000 C   0  0  0
    3.8799    5.6905    0.0000 C   0  0  0
    2.2574    3.8799    0.0000 C   0  0  0
    3.3390    8.2300    0.0000 C   0  0  0
   -7.0190   -2.0928    0.0000 C   0  0  0
   -5.2790   -4.0210    0.0000 C   0  0  0
    4.6206    4.3972    0.0000 N   0  0  0
    4.3266    7.1248    0.0000 C   0  0  0
    3.6212    3.2802    0.0000 N   0  0  0
   -4.0327   -4.8322    0.0000 C   0  0  0
   -6.1137   -5.2672    0.0000 C   0  0  0
   -6.7133   -3.5507    0.0000 C   0  0  0
    6.1020    4.2561    0.0000 C   0  0  0
   -4.8675   -6.0785    0.0000 O   0  0  0
   -7.8420   -4.5383    0.0000 C   0  0  0
   -9.3234   -4.2091    0.0000 N   0  0  0
   -7.7009   -6.0197    0.0000 N   0  0  0
  -10.0876   -5.5024    0.0000 N   0  0  0
   -9.0883   -6.6193    0.0000 C   0  0  0
   -6.4077   -6.7604    0.0000 C   0  0  0
  1  2  1
  2  3  1
  2  4  1
  2  5  1
  5  6  2
  5  7  1
  6  8  1
  6  9  1
  7 10  2
  8 11  1
  8 12  2
  9 13  1
 10 14  1
 11 15  2
 13 16  1
 14 17  1
 16 18  2
 16 19  1
 17 20  1
 17 21  1
 18 22  1
 19 23  2
 20 24  2
 20 25  1
 21 26  1
 22 27  2
 22 28  1
 24 29  1
 24 30  1
 25 31  2
 28 32  1
 28 33  1
 28 34  1
 29 35  1
 32 36  1
 34 37  1
 37 38  2
 37 39  1
 38 40  1
 39 41  1
 39 42  1
 10 12  1
 11 13  1
 23 27  1
 26 30  1
 29 31  1
 33 36  1
 40 41  2
M  END
> <COMPOUND_NAMES>
Example 651 (Page No: 743)

> <Reference>
WO2019148005

> <IC50_range_nM>
<100

> <smiles>
Cn1cnnc1CC1(COC1)c1cccc(c1)N1Cc2c(cc(CN3CCCc4c3cnn4C)cc2C(F)(F)F)C1=O

$$$$
C22H17F3N6O
  MOLSOFT 03092310482D

 32 36  0  0  0  0  0  0  0  0999 V2000
    0.0000   -0.0000    0.0000 F   0  0  0
    1.1032    1.0093    0.0000 C   0  0  0
    2.0890   -0.0939    0.0000 F   0  0  0
    2.2064    2.0186    0.0000 F   0  0  0
    0.0939    2.1360    0.0000 C   0  0  0
   -1.3849    1.8309    0.0000 C   0  0  0
    0.5399    3.5678    0.0000 C   0  0  0
   -2.3942    2.9575    0.0000 C   0  0  0
   -2.1477    0.5399    0.0000 C   0  0  0
   -0.4694    4.6945    0.0000 C   0  0  0
   -3.7791    2.3590    0.0000 C   0  0  0
   -1.9482    4.3893    0.0000 C   0  0  0
   -3.6265    0.8685    0.0000 N   0  0  0
   -5.0935    3.1218    0.0000 O   0  0  0
   -4.7532   -0.1174    0.0000 C   0  0  0
   -4.4480   -1.5727    0.0000 C   0  0  0
   -6.1850    0.3521    0.0000 C   0  0  0
   -5.5747   -2.5585    0.0000 C   0  0  0
   -7.3117   -0.6338    0.0000 C   0  0  0
   -5.2696   -4.0138    0.0000 C   0  0  0
   -7.0065   -2.0890    0.0000 C   0  0  0
   -3.9082   -4.6123    0.0000 N   0  0  0
   -6.2789   -5.1170    0.0000 C   0  0  0
   -4.0725   -6.0911    0.0000 N   0  0  0
   -2.6289   -3.8495    0.0000 C   0  0  0
   -7.7811   -4.9527    0.0000 C   0  0  0
   -5.5395   -6.4080    0.0000 C   0  0  0
   -8.5440   -3.6500    0.0000 N   0  0  0
   -8.7904   -6.0559    0.0000 N   0  0  0
  -10.0227   -3.9551    0.0000 N   0  0  0
  -10.1753   -5.4339    0.0000 C   0  0  0
   -8.4853   -7.5112    0.0000 C   0  0  0
  1  2  1
  2  3  1
  2  4  1
  2  5  1
  5  6  2
  5  7  1
  6  8  1
  6  9  1
  7 10  2
  8 11  1
  8 12  2
  9 13  1
 11 14  2
 13 15  1
 15 16  2
 15 17  1
 16 18  1
 17 19  2
 18 20  1
 18 21  2
 20 22  1
 20 23  2
 22 24  1
 22 25  1
 23 26  1
 23 27  1
 26 28  2
 26 29  1
 28 30  1
 29 31  1
 29 32  1
 10 12  1
 11 13  1
 19 21  1
 24 27  2
 30 31  2
M  END
> <COMPOUND_NAMES>
Example 523 (Page No: 664)

> <Reference>
WO2019148005

> <IC50_range_nM>
101-300

> <smiles>
Cn1cnnc1c1cnn(C)c1c1cccc(c1)N1Cc2c(cccc2C(F)(F)F)C1=O

$$$$
C28H28F3N7O2
  MOLSOFT 03092310482D

 40 45  0  0  1  0  0  0  0  0999 V2000
    0.0000   -0.0000    0.0000 F   0  0  0
    1.4866    0.0118    0.0000 C   0  0  0
    1.4748   -1.4748    0.0000 F   0  0  0
    2.9731    0.0236    0.0000 F   0  0  0
    1.4748    1.5220    0.0000 C   0  0  0
    2.7608    2.2770    0.0000 C   0  0  0
    0.1652    2.2770    0.0000 C   0  0  0
    2.7490    3.7872    0.0000 C   0  0  0
    4.1765    1.8287    0.0000 C   0  0  0
    0.1534    3.7872    0.0000 C   0  0  0
    4.1647    4.2591    0.0000 C   0  0  0
    1.4394    4.5541    0.0000 C   0  0  0
    5.0496    3.0557    0.0000 N   0  0  0
   -1.1562    4.5541    0.0000 C   0  0  0
    4.6131    5.6985    0.0000 O   0  0  0
    6.5362    3.0675    0.0000 C   0  0  0
   -2.4658    3.8108    0.0000 N   0  0  0
    7.2677    4.3771    0.0000 C   0  0  0
    7.2677    1.7815    0.0000 C   0  0  0
   -3.7754    4.5777    0.0000 C   0  0  0
   -2.4776    2.3242    0.0000 C   0  0  0
    8.7542    4.3889    0.0000 C   0  0  0
    8.7542    1.7933    0.0000 C   0  0  0
   -5.0850    3.8344    0.0000 C   0  0  2
   -3.7872    1.5927    0.0000 C   0  0  0
    9.4975    5.6985    0.0000 C   0  0  0
    9.4975    3.1029    0.0000 C   0  0  0
   -5.0968    2.3478    0.0000 O   0  0  0
   -6.3946    4.6013    0.0000 C   0  0  0
   10.9723    5.8637    0.0000 N   0  0  0
    8.8722    7.0789    0.0000 C   0  0  0
   11.2672    7.3384    0.0000 N   0  0  0
   11.9633    4.7665    0.0000 C   0  0  0
    7.3974    7.3974    0.0000 C   0  0  0
    9.9694    8.0935    0.0000 C   0  0  0
    6.2766    6.4064    0.0000 N   0  0  0
    6.7721    8.7778    0.0000 N   0  0  0
    4.9670    7.1615    0.0000 N   0  0  0
    5.2738    8.6362    0.0000 C   0  0  0
    7.5036   10.0874    0.0000 C   0  0  0
  1  2  1
  2  3  1
  2  4  1
  2  5  1
  5  6  2
  5  7  1
  6  8  1
  6  9  1
  7 10  2
  8 11  1
  8 12  2
  9 13  1
 10 14  1
 11 15  2
 13 16  1
 14 17  1
 16 18  2
 16 19  1
 17 20  1
 17 21  1
 18 22  1
 19 23  2
 24 20  1
 21 25  1
 22 26  1
 22 27  2
 24 28  1
 24 29  1  6  0
 26 30  1
 26 31  2
 30 32  1
 30 33  1
 31 34  1
 31 35  1
 34 36  2
 34 37  1
 36 38  1
 37 39  1
 37 40  1
 10 12  1
 11 13  1
 23 27  1
 25 28  1
 32 35  2
 38 39  2
M  END
> <COMPOUND_NAMES>
Example 524 (R) (Page No: 664)

> <Reference>
WO2019148005

> <IC50_range_nM>
<100

> <smiles>
C[C@@H]1CN(CCO1)Cc1cc2C(N(Cc2c(c1)C(F)(F)F)c1cccc(c1)c1c(cnn1C)c1nncn1C)=O

$$$$
C29H30F3N7O2
  MOLSOFT 03092310482D

 41 46  0  0  0  0  0  0  0  0999 V2000
    0.0000   -0.0000    0.0000 F   0  0  0
    1.4869    0.0118    0.0000 C   0  0  0
    1.4751   -1.4751    0.0000 F   0  0  0
    2.9737    0.0236    0.0000 F   0  0  0
    1.4751    1.5223    0.0000 C   0  0  0
    2.7613    2.2775    0.0000 C   0  0  0
    0.1652    2.2775    0.0000 C   0  0  0
    2.7495    3.7879    0.0000 C   0  0  0
    4.1774    1.8291    0.0000 C   0  0  0
    0.1534    3.7879    0.0000 C   0  0  0
    4.1656    4.2600    0.0000 C   0  0  0
    1.4397    4.5550    0.0000 C   0  0  0
    5.0506    3.0563    0.0000 N   0  0  0
   -1.1564    4.5550    0.0000 C   0  0  0
    4.6140    5.6996    0.0000 O   0  0  0
    6.5374    3.0681    0.0000 C   0  0  0
   -2.4663    3.8115    0.0000 N   0  0  0
    7.2691    4.3780    0.0000 C   0  0  0
    7.2691    1.7819    0.0000 C   0  0  0
   -3.7761    4.5786    0.0000 C   0  0  0
   -2.4781    2.3247    0.0000 C   0  0  0
    8.7559    4.3898    0.0000 C   0  0  0
    8.7559    1.7937    0.0000 C   0  0  0
   -5.0860    3.8351    0.0000 C   0  0  1
   -3.7879    1.5931    0.0000 C   0  0  2
    9.4993    5.6996    0.0000 C   0  0  0
    9.4993    3.1035    0.0000 C   0  0  0
   -5.0978    2.3483    0.0000 O   0  0  0
   -6.3958    4.6022    0.0000 C   0  0  0
   -3.7997    0.1062    0.0000 C   0  0  0
   10.9744    5.8648    0.0000 N   0  0  0
    8.8739    7.0803    0.0000 C   0  0  0
   11.2694    7.3399    0.0000 N   0  0  0
   11.9656    4.7674    0.0000 C   0  0  0
    7.3989    7.3989    0.0000 C   0  0  0
    9.9714    8.0951    0.0000 C   0  0  0
    6.2778    6.4076    0.0000 N   0  0  0
    6.7734    8.7795    0.0000 N   0  0  0
    4.9680    7.1629    0.0000 N   0  0  0
    5.2748    8.6379    0.0000 C   0  0  0
    7.5051   10.0894    0.0000 C   0  0  0
  1  2  1
  2  3  1
  2  4  1
  2  5  1
  5  6  2
  5  7  1
  6  8  1
  6  9  1
  7 10  2
  8 11  1
  8 12  2
  9 13  1
 10 14  1
 11 15  2
 13 16  1
 14 17  1
 16 18  2
 16 19  1
 17 20  1
 17 21  1
 18 22  1
 19 23  2
 24 20  1
 25 21  1
 22 26  1
 22 27  2
 24 28  1
 24 29  1  1  0
 25 30  1  1  0
 26 31  1
 26 32  2
 31 33  1
 31 34  1
 32 35  1
 32 36  1
 35 37  2
 35 38  1
 37 39  1
 38 40  1
 38 41  1
 10 12  1
 11 13  1
 23 27  1
 25 28  1
 33 36  2
 39 40  2
M  END
> <COMPOUND_NAMES>
Example 525 (Stereo) (Page No: 665)

> <Reference>
WO2019148005

> <IC50_range_nM>
<100

> <smiles>
C[C@H]1CN(Cc2cc3C(N(Cc3c(c2)C(F)(F)F)c2cccc(c2)c2c(cnn2C)c2nncn2C)=O)C[C@@H](C)O1

$$$$
C30H29F3N6O3
  MOLSOFT 03092310482D

 42 48  0  0  0  0  0  0  0  0999 V2000
    0.0000   -0.0000    0.0000 F   0  0  0
    1.1004    1.0175    0.0000 C   0  0  0
    2.0943   -0.0828    0.0000 F   0  0  0
    2.2007    2.0351    0.0000 F   0  0  0
    0.0828    2.1416    0.0000 C   0  0  0
   -1.3962    1.8458    0.0000 C   0  0  0
    0.5324    3.5851    0.0000 C   0  0  0
   -2.4137    2.9698    0.0000 C   0  0  0
   -2.1534    0.5561    0.0000 C   0  0  0
   -0.4851    4.7091    0.0000 C   0  0  0
   -3.7981    2.3664    0.0000 C   0  0  0
   -1.9641    4.4133    0.0000 C   0  0  0
   -3.6324    0.8756    0.0000 N   0  0  0
   -0.0355    6.1526    0.0000 C   0  0  0
   -5.1114    3.1236    0.0000 O   0  0  0
   -4.7564   -0.1183    0.0000 C   0  0  0
    1.4198    6.4721    0.0000 N   0  0  0
   -4.4606   -1.5736    0.0000 C   0  0  0
   -6.1999    0.3550    0.0000 C   0  0  0
    2.4137    5.3717    0.0000 C   0  0  0
    1.8694    7.9156    0.0000 C   0  0  0
   -5.5847   -2.5675    0.0000 C   0  0  0
   -7.3240   -0.6389    0.0000 C   0  0  0
    3.8690    5.6912    0.0000 C   0  0  0
    3.3248    8.2350    0.0000 C   0  0  0
   -7.0282   -2.0943    0.0000 C   0  0  0
   -5.2889   -4.0229    0.0000 C   0  0  0
    5.0759    4.8156    0.0000 N   0  0  0
    4.3187    7.1347    0.0000 C   0  0  0
   -4.0465   -4.8274    0.0000 C   0  0  0
   -6.1171   -5.2652    0.0000 C   0  0  0
   -6.7324   -3.5496    0.0000 C   0  0  0
    6.2828    5.7148    0.0000 C   0  0  0
    5.8095    7.1465    0.0000 O   0  0  0
   -4.8748   -6.0698    0.0000 O   0  0  0
   -7.8564   -4.5435    0.0000 C   0  0  0
    7.7026    5.2652    0.0000 C   0  0  0
   -9.3354   -4.2240    0.0000 N   0  0  0
   -7.7144   -6.0225    0.0000 N   0  0  0
  -10.0927   -5.5137    0.0000 N   0  0  0
   -9.0988   -6.6259    0.0000 C   0  0  0
   -6.4248   -6.7560    0.0000 C   0  0  0
  1  2  1
  2  3  1
  2  4  1
  2  5  1
  5  6  2
  5  7  1
  6  8  1
  6  9  1
  7 10  2
  8 11  1
  8 12  2
  9 13  1
 10 14  1
 11 15  2
 13 16  1
 14 17  1
 16 18  2
 16 19  1
 17 20  1
 17 21  1
 18 22  1
 19 23  2
 20 24  1
 21 25  1
 22 26  2
 22 27  1
 24 28  1
 24 29  2
 27 30  1
 27 31  1
 27 32  1
 28 33  2
 29 34  1
 30 35  1
 32 36  1
 33 37  1
 36 38  2
 36 39  1
 38 40  1
 39 41  1
 39 42  1
 10 12  1
 11 13  1
 23 26  1
 25 29  1
 31 35  1
 33 34  1
 40 41  2
M  END
> <COMPOUND_NAMES>
Example 649 (Page No: 742)

> <Reference>
WO2019148005

> <IC50_range_nM>
<100

> <smiles>
Cc1nc2CN(CCc2o1)Cc1cc2C(N(Cc2c(c1)C(F)(F)F)c1cccc(c1)C1(Cc2nncn2C)COC1)=O

$$$$
C22H19F3N2O2
  MOLSOFT 03092310482D

 29 32  0  0  1  0  0  0  0  0999 V2000
    0.0000   -0.0000    0.0000 F   0  0  0
    1.1043    1.0103    0.0000 C   0  0  0
    2.0911   -0.0940    0.0000 F   0  0  0
    2.2086    2.0206    0.0000 F   0  0  0
    0.0940    2.1381    0.0000 C   0  0  0
   -1.3862    1.8327    0.0000 C   0  0  0
    0.5404    3.5713    0.0000 C   0  0  0
   -2.3965    2.9604    0.0000 C   0  0  0
   -2.1498    0.5404    0.0000 C   0  0  0
   -0.4699    4.6991    0.0000 C   0  0  0
   -3.7828    2.3613    0.0000 C   0  0  0
   -1.9501    4.3937    0.0000 C   0  0  0
   -3.6301    0.8693    0.0000 N   0  0  0
   -5.0985    3.1249    0.0000 O   0  0  0
   -4.7579   -0.1175    0.0000 C   0  0  0
   -4.4524   -1.5742    0.0000 C   0  0  0
   -6.1911    0.3524    0.0000 C   0  0  0
   -5.5802   -2.5610    0.0000 C   0  0  0
   -7.3189   -0.6344    0.0000 C   0  0  0
   -7.0134   -2.0911    0.0000 C   0  0  0
   -5.2748   -4.0177    0.0000 C   0  0  1
   -3.8650   -4.4642    0.0000 C   0  0  0
   -6.4025   -5.0046    0.0000 C   0  0  0
   -3.5596   -5.9209    0.0000 C   0  0  0
   -2.1968   -6.5200    0.0000 N   0  0  0
   -4.5699   -7.0252    0.0000 C   0  0  0
   -2.3613   -8.0002    0.0000 O   0  0  0
   -3.8298   -8.3057    0.0000 C   0  0  0
   -6.0736   -6.8607    0.0000 C   0  0  0
  1  2  1
  2  3  1
  2  4  1
  2  5  1
  5  6  2
  5  7  1
  6  8  1
  6  9  1
  7 10  2
  8 11  1
  8 12  2
  9 13  1
 11 14  2
 13 15  1
 15 16  2
 15 17  1
 16 18  1
 17 19  2
 18 20  2
 21 18  1
 21 22  1
 21 23  1  1  0
 22 24  1
 24 25  2
 24 26  1
 25 27  1
 26 28  2
 26 29  1
 10 12  1
 11 13  1
 19 20  1
 27 28  1
M  END
> <COMPOUND_NAMES>
Example 367a (R) (Page No: 547)

> <Reference>
WO2019148005

> <IC50_range_nM>
101-300

> <smiles>
Cc1conc1C[C@@H](C)c1cccc(c1)N1Cc2c(cccc2C(F)(F)F)C1=O

$$$$
C22H19F3N2O2
  MOLSOFT 03092310482D

 29 32  0  0  1  0  0  0  0  0999 V2000
    0.0000   -0.0000    0.0000 F   0  0  0
    1.1043    1.0103    0.0000 C   0  0  0
    2.0911   -0.0940    0.0000 F   0  0  0
    2.2086    2.0206    0.0000 F   0  0  0
    0.0940    2.1381    0.0000 C   0  0  0
   -1.3862    1.8327    0.0000 C   0  0  0
    0.5404    3.5713    0.0000 C   0  0  0
   -2.3965    2.9604    0.0000 C   0  0  0
   -2.1498    0.5404    0.0000 C   0  0  0
   -0.4699    4.6991    0.0000 C   0  0  0
   -3.7828    2.3613    0.0000 C   0  0  0
   -1.9501    4.3937    0.0000 C   0  0  0
   -3.6301    0.8693    0.0000 N   0  0  0
   -5.0985    3.1249    0.0000 O   0  0  0
   -4.7579   -0.1175    0.0000 C   0  0  0
   -4.4524   -1.5742    0.0000 C   0  0  0
   -6.1911    0.3524    0.0000 C   0  0  0
   -5.5802   -2.5610    0.0000 C   0  0  0
   -7.3189   -0.6344    0.0000 C   0  0  0
   -7.0134   -2.0911    0.0000 C   0  0  0
   -5.2748   -4.0177    0.0000 C   0  0  1
   -3.8650   -4.4642    0.0000 C   0  0  0
   -6.4025   -5.0046    0.0000 C   0  0  0
   -3.5596   -5.9209    0.0000 C   0  0  0
   -2.1968   -6.5200    0.0000 N   0  0  0
   -4.5699   -7.0252    0.0000 C   0  0  0
   -2.3613   -8.0002    0.0000 O   0  0  0
   -3.8298   -8.3057    0.0000 C   0  0  0
   -6.0736   -6.8607    0.0000 C   0  0  0
  1  2  1
  2  3  1
  2  4  1
  2  5  1
  5  6  2
  5  7  1
  6  8  1
  6  9  1
  7 10  2
  8 11  1
  8 12  2
  9 13  1
 11 14  2
 13 15  1
 15 16  2
 15 17  1
 16 18  1
 17 19  2
 18 20  2
 21 18  1
 21 22  1
 21 23  1  1  0
 22 24  1
 24 25  2
 24 26  1
 25 27  1
 26 28  2
 26 29  1
 10 12  1
 11 13  1
 19 20  1
 27 28  1
M  END
> <COMPOUND_NAMES>
Example 268 (+/-) (Page No: 478)

> <Reference>
WO2019148005

> <IC50_range_nM>
301-1000

> <smiles>
Cc1conc1C[C@@H](C)c1cccc(c1)N1Cc2c(cccc2C(F)(F)F)C1=O

$$$$
C22H19F3N2O2
  MOLSOFT 03092310482D

 29 32  0  0  1  0  0  0  0  0999 V2000
    0.0000   -0.0000    0.0000 F   0  0  0
    1.1043    1.0103    0.0000 C   0  0  0
    2.0911   -0.0940    0.0000 F   0  0  0
    2.2086    2.0206    0.0000 F   0  0  0
    0.0940    2.1381    0.0000 C   0  0  0
   -1.3862    1.8327    0.0000 C   0  0  0
    0.5404    3.5713    0.0000 C   0  0  0
   -2.3965    2.9604    0.0000 C   0  0  0
   -2.1498    0.5404    0.0000 C   0  0  0
   -0.4699    4.6991    0.0000 C   0  0  0
   -3.7828    2.3613    0.0000 C   0  0  0
   -1.9501    4.3937    0.0000 C   0  0  0
   -3.6301    0.8693    0.0000 N   0  0  0
   -5.0985    3.1249    0.0000 O   0  0  0
   -4.7579   -0.1175    0.0000 C   0  0  0
   -4.4524   -1.5742    0.0000 C   0  0  0
   -6.1911    0.3524    0.0000 C   0  0  0
   -5.5802   -2.5610    0.0000 C   0  0  0
   -7.3189   -0.6344    0.0000 C   0  0  0
   -7.0134   -2.0911    0.0000 C   0  0  0
   -5.2748   -4.0177    0.0000 C   0  0  1
   -3.8650   -4.4642    0.0000 C   0  0  0
   -6.4025   -5.0046    0.0000 C   0  0  0
   -3.5596   -5.9209    0.0000 C   0  0  0
   -2.1968   -6.5200    0.0000 N   0  0  0
   -4.5699   -7.0252    0.0000 C   0  0  0
   -2.3613   -8.0002    0.0000 O   0  0  0
   -3.8298   -8.3057    0.0000 C   0  0  0
   -6.0736   -6.8607    0.0000 C   0  0  0
  1  2  1
  2  3  1
  2  4  1
  2  5  1
  5  6  2
  5  7  1
  6  8  1
  6  9  1
  7 10  2
  8 11  1
  8 12  2
  9 13  1
 11 14  2
 13 15  1
 15 16  2
 15 17  1
 16 18  1
 17 19  2
 18 20  2
 21 18  1
 21 22  1
 21 23  1  1  0
 22 24  1
 24 25  2
 24 26  1
 25 27  1
 26 28  2
 26 29  1
 10 12  1
 11 13  1
 19 20  1
 27 28  1
M  END
> <COMPOUND_NAMES>
Example 367b (S) (Page No: 547)

> <Reference>
WO2019148005

> <IC50_range_nM>
1001-3000

> <smiles>
Cc1conc1C[C@@H](C)c1cccc(c1)N1Cc2c(cccc2C(F)(F)F)C1=O

$$$$
C22H19F3N2O3
  MOLSOFT 03092310482D

 30 33  0  0  0  0  0  0  0  0999 V2000
    0.0000   -0.0000    0.0000 F   0  0  0
    1.1044    1.0104    0.0000 C   0  0  0
    2.0913   -0.0940    0.0000 F   0  0  0
    2.2088    2.0209    0.0000 F   0  0  0
    0.0940    2.1383    0.0000 C   0  0  0
   -1.3864    1.8329    0.0000 C   0  0  0
    0.5405    3.5717    0.0000 C   0  0  0
   -2.3968    2.9608    0.0000 C   0  0  0
   -2.1501    0.5405    0.0000 C   0  0  0
   -0.4700    4.6997    0.0000 C   0  0  0
   -3.7832    2.3616    0.0000 C   0  0  0
   -1.9504    4.3942    0.0000 C   0  0  0
   -3.6305    0.8694    0.0000 N   0  0  0
   -5.0991    3.1253    0.0000 O   0  0  0
   -4.7584   -0.1175    0.0000 C   0  0  0
   -4.4529   -1.5744    0.0000 C   0  0  0
   -6.1918    0.3525    0.0000 C   0  0  0
   -5.5808   -2.5613    0.0000 C   0  0  0
   -7.3197   -0.6345    0.0000 C   0  0  0
   -7.0142   -2.0913    0.0000 C   0  0  0
   -5.2754   -4.0182    0.0000 C   0  0  3
   -3.8655   -4.4647    0.0000 C   0  0  0
   -6.4033   -5.0051    0.0000 C   0  0  0
   -3.5600   -5.9216    0.0000 C   0  0  0
   -2.1971   -6.5208    0.0000 N   0  0  0
   -4.5704   -7.0260    0.0000 C   0  0  0
   -2.3616   -8.0012    0.0000 O   0  0  0
   -3.8302   -8.3066    0.0000 C   0  0  0
   -6.0743   -6.8615    0.0000 C   0  0  0
   -6.9672   -8.0599    0.0000 O   0  0  0
  1  2  1
  2  3  1
  2  4  1
  2  5  1
  5  6  2
  5  7  1
  6  8  1
  6  9  1
  7 10  2
  8 11  1
  8 12  2
  9 13  1
 11 14  2
 13 15  1
 15 16  2
 15 17  1
 16 18  1
 17 19  2
 18 20  2
 21 18  1
 21 22  1
 21 23  1
 22 24  1
 24 25  2
 24 26  1
 25 27  1
 26 28  2
 26 29  1
 29 30  1
 10 12  1
 11 13  1
 19 20  1
 27 28  1
M  END
> <COMPOUND_NAMES>
Example 269 (+/-) (Page No: 479)

> <Reference>
WO2019148005

> <IC50_range_nM>
1001-3000

> <smiles>
CC(Cc1c(CO)con1)c1cccc(c1)N1Cc2c(cccc2C(F)(F)F)C1=O

$$$$
C27H26F3N3O4
  MOLSOFT 03092310482D

 37 41  0  0  1  0  0  0  0  0999 V2000
    0.0000   -0.0000    0.0000 F   0  0  0
    1.1049    1.0109    0.0000 C   0  0  0
    2.0923   -0.0940    0.0000 F   0  0  0
    2.2098    2.0217    0.0000 F   0  0  0
    0.0940    2.1393    0.0000 C   0  0  0
   -1.3870    1.8337    0.0000 C   0  0  0
    0.5407    3.5733    0.0000 C   0  0  0
   -2.3979    2.9621    0.0000 C   0  0  0
   -2.1510    0.5407    0.0000 C   0  0  0
   -0.4702    4.7017    0.0000 C   0  0  0
   -3.7849    2.3626    0.0000 C   0  0  0
   -1.9512    4.3961    0.0000 C   0  0  0
   -3.6321    0.8698    0.0000 N   0  0  0
   -0.0235    6.1357    0.0000 C   0  0  0
   -5.1013    3.1266    0.0000 O   0  0  0
   -4.7605   -0.1175    0.0000 C   0  0  0
   -1.0344    7.2641    0.0000 O   0  0  0
    1.4340    6.4648    0.0000 N   0  0  0
   -4.4549   -1.5751    0.0000 C   0  0  0
   -6.1945    0.3526    0.0000 C   0  0  0
    2.5389    5.4775    0.0000 C   0  0  0
    2.0335    7.8518    0.0000 C   0  0  0
   -5.5833   -2.5624    0.0000 C   0  0  0
   -7.3229   -0.6347    0.0000 C   0  0  0
    3.8201    6.2415    0.0000 C   0  0  2
    3.5145    7.7108    0.0000 C   0  0  0
   -7.0173   -2.0923    0.0000 C   0  0  0
   -5.2777   -4.0200    0.0000 C   0  0  1
    5.1836    5.6420    0.0000 O   0  0  0
   -3.8671   -4.4666    0.0000 C   0  0  0
   -6.4061   -5.0073    0.0000 C   0  0  0
   -3.5615   -5.9241    0.0000 C   0  0  0
   -2.1980   -6.5236    0.0000 N   0  0  0
   -4.5724   -7.0290    0.0000 C   0  0  0
   -2.3626   -8.0046    0.0000 O   0  0  0
   -3.8319   -8.3103    0.0000 C   0  0  0
   -6.0769   -6.8645    0.0000 C   0  0  0
  1  2  1
  2  3  1
  2  4  1
  2  5  1
  5  6  2
  5  7  1
  6  8  1
  6  9  1
  7 10  2
  8 11  1
  8 12  2
  9 13  1
 10 14  1
 11 15  2
 13 16  1
 14 17  2
 14 18  1
 16 19  2
 16 20  1
 18 21  1
 18 22  1
 19 23  1
 20 24  2
 25 21  1
 22 26  1
 23 27  2
 28 23  1
 25 29  1  6  0
 28 30  1
 28 31  1  1  0
 30 32  1
 32 33  2
 32 34  1
 33 35  1
 34 36  2
 34 37  1
 10 12  1
 11 13  1
 24 27  1
 25 26  1
 35 36  1
M  END
> <COMPOUND_NAMES>
Example 407 (Stereo) (Page No: 575)

> <Reference>
WO2019148005

> <IC50_range_nM>
<100

> <smiles>
Cc1conc1C[C@@H](C)c1cccc(c1)N1Cc2c(cc(cc2C(F)(F)F)C(N2CC[C@@H](C2)O)=O)C1=O

$$$$
C27H23F6N3O4
  MOLSOFT 03092310482D

 40 44  0  0  1  0  0  0  0  0999 V2000
    0.0000   -0.0000    0.0000 F   0  0  0
    1.1047    1.0106    0.0000 C   0  0  0
    2.0918   -0.0940    0.0000 F   0  0  0
    2.2093    2.0213    0.0000 F   0  0  0
    0.0940    2.1388    0.0000 C   0  0  0
   -1.3867    1.8333    0.0000 C   0  0  0
    0.5406    3.5725    0.0000 C   0  0  0
   -2.3973    2.9614    0.0000 C   0  0  0
   -2.1505    0.5406    0.0000 C   0  0  0
   -0.4701    4.7006    0.0000 C   0  0  0
   -3.7840    2.3621    0.0000 C   0  0  0
   -1.9508    4.3951    0.0000 C   0  0  0
   -3.6312    0.8696    0.0000 N   0  0  0
   -0.0235    6.1343    0.0000 C   0  0  0
   -5.1002    3.1259    0.0000 O   0  0  0
   -4.7594   -0.1175    0.0000 C   0  0  0
   -1.0341    7.2625    0.0000 O   0  0  0
    1.4337    6.4634    0.0000 N   0  0  0
   -4.4539   -1.5747    0.0000 C   0  0  0
   -6.1931    0.3525    0.0000 C   0  0  0
    2.5383    5.4763    0.0000 C   0  0  0
    2.0330    7.8501    0.0000 C   0  0  0
   -5.5820   -2.5619    0.0000 C   0  0  0
   -7.3213   -0.6346    0.0000 C   0  0  0
    3.8193    6.2401    0.0000 C   0  0  2
    3.5137    7.7091    0.0000 C   0  0  0
   -7.0157   -2.0918    0.0000 C   0  0  0
   -5.2765   -4.0191    0.0000 C   0  0  1
    5.1825    5.6408    0.0000 O   0  0  0
   -3.8663   -4.4656    0.0000 C   0  0  0
   -6.4046   -5.0062    0.0000 C   0  0  0
   -3.5607   -5.9228    0.0000 C   0  0  0
   -2.1976   -6.5221    0.0000 N   0  0  0
   -4.5714   -7.0275    0.0000 C   0  0  0
   -2.3621   -8.0028    0.0000 O   0  0  0
   -3.8310   -8.3084    0.0000 C   0  0  0
   -6.0756   -6.8629    0.0000 C   0  0  0
   -5.9346   -5.3587    0.0000 F   0  0  0
   -7.5798   -6.6984    0.0000 F   0  0  0
   -6.2401   -8.3436    0.0000 F   0  0  0
  1  2  1
  2  3  1
  2  4  1
  2  5  1
  5  6  2
  5  7  1
  6  8  1
  6  9  1
  7 10  2
  8 11  1
  8 12  2
  9 13  1
 10 14  1
 11 15  2
 13 16  1
 14 17  2
 14 18  1
 16 19  2
 16 20  1
 18 21  1
 18 22  1
 19 23  1
 20 24  2
 25 21  1
 22 26  1
 23 27  2
 28 23  1
 25 29  1  6  0
 28 30  1
 28 31  1  1  0
 30 32  1
 32 33  2
 32 34  1
 33 35  1
 34 36  2
 34 37  1
 37 38  1
 37 39  1
 37 40  1
 10 12  1
 11 13  1
 24 27  1
 25 26  1
 35 36  1
M  END
> <COMPOUND_NAMES>
Example 484 (Stereo) (Page No: 635)

> <Reference>
WO2019148005

> <IC50_range_nM>
101-300

> <smiles>
C[C@H](Cc1c(con1)C(F)(F)F)c1cccc(c1)N1Cc2c(cc(cc2C(F)(F)F)C(N2CC[C@@H](C2)O)=O)C1=O

$$$$
C27H24F7N3O2
  MOLSOFT 03092310482D

 39 43  0  0  1  0  0  0  0  0999 V2000
    0.0000   -0.0000    0.0000 F   0  0  0
    1.1049    1.0109    0.0000 C   0  0  0
    2.0923   -0.0940    0.0000 F   0  0  0
    2.2098    2.0217    0.0000 F   0  0  0
    0.0940    2.1393    0.0000 C   0  0  0
   -1.3870    1.8337    0.0000 C   0  0  0
    0.5407    3.5733    0.0000 C   0  0  0
   -2.3979    2.9621    0.0000 C   0  0  0
   -2.1510    0.5407    0.0000 C   0  0  0
   -0.4702    4.7017    0.0000 C   0  0  0
   -3.7849    2.3626    0.0000 C   0  0  0
   -1.9512    4.3961    0.0000 C   0  0  0
   -3.6321    0.8698    0.0000 N   0  0  0
   -0.0235    6.1357    0.0000 C   0  0  0
   -5.1014    3.1266    0.0000 O   0  0  0
   -4.7605   -0.1175    0.0000 C   0  0  0
    1.4340    6.4649    0.0000 N   0  0  0
   -4.4549   -1.5751    0.0000 C   0  0  0
   -6.1945    0.3526    0.0000 C   0  0  0
    2.5389    5.4775    0.0000 C   0  0  0
    2.0335    7.8519    0.0000 C   0  0  0
   -5.5833   -2.5624    0.0000 C   0  0  0
   -7.3229   -0.6347    0.0000 C   0  0  0
    3.8201    6.2415    0.0000 C   0  0  2
    3.5145    7.7108    0.0000 C   0  0  0
   -7.0173   -2.0923    0.0000 C   0  0  0
   -5.2777   -4.0200    0.0000 C   0  0  1
    5.1836    5.6421    0.0000 F   0  0  0
   -3.8672   -4.4666    0.0000 C   0  0  0
   -6.4061   -5.0073    0.0000 C   0  0  0
   -3.5615   -5.9242    0.0000 C   0  0  0
   -2.1981   -6.5236    0.0000 N   0  0  0
   -4.5724   -7.0291    0.0000 C   0  0  0
   -2.3626   -8.0047    0.0000 O   0  0  0
   -3.8319   -8.3103    0.0000 C   0  0  0
   -6.0770   -6.8645    0.0000 C   0  0  0
   -5.9359   -5.3600    0.0000 F   0  0  0
   -7.5815   -6.6999    0.0000 F   0  0  0
   -6.2415   -8.3455    0.0000 F   0  0  0
  1  2  1
  2  3  1
  2  4  1
  2  5  1
  5  6  2
  5  7  1
  6  8  1
  6  9  1
  7 10  2
  8 11  1
  8 12  2
  9 13  1
 10 14  1
 11 15  2
 13 16  1
 14 17  1
 16 18  2
 16 19  1
 17 20  1
 17 21  1
 18 22  1
 19 23  2
 24 20  1
 21 25  1
 22 26  2
 27 22  1
 24 28  1  6  0
 27 29  1
 27 30  1  1  0
 29 31  1
 31 32  2
 31 33  1
 32 34  1
 33 35  2
 33 36  1
 36 37  1
 36 38  1
 36 39  1
 10 12  1
 11 13  1
 23 26  1
 24 25  1
 34 35  1
M  END
> <COMPOUND_NAMES>
Example 485 (Stereo) (Page No: 637)

> <Reference>
WO2019148005

> <IC50_range_nM>
101-300

> <smiles>
C[C@H](Cc1c(con1)C(F)(F)F)c1cccc(c1)N1Cc2c(cc(CN3CC[C@@H](C3)F)cc2C(F)(F)F)C1=O

$$$$
C30H30F3N3O3
  MOLSOFT 03092310482D

 39 45  0  0  0  0  0  0  0  0999 V2000
    0.0000   -0.0000    0.0000 F   0  0  0
    1.1048    1.0107    0.0000 C   0  0  0
    2.0920   -0.0940    0.0000 F   0  0  0
    2.2095    2.0215    0.0000 F   0  0  0
    0.0940    2.1390    0.0000 C   0  0  0
   -1.3868    1.8334    0.0000 C   0  0  0
    0.5406    3.5728    0.0000 C   0  0  0
   -2.3975    2.9617    0.0000 C   0  0  0
   -2.1507    0.5406    0.0000 C   0  0  0
   -0.4701    4.7011    0.0000 C   0  0  0
   -3.7844    2.3623    0.0000 C   0  0  0
   -1.9509    4.3955    0.0000 C   0  0  0
   -3.6316    0.8697    0.0000 N   0  0  0
   -0.0235    6.1349    0.0000 C   0  0  0
   -5.1007    3.1262    0.0000 O   0  0  0
   -4.7598   -0.1175    0.0000 C   0  0  0
    1.4338    6.4640    0.0000 N   0  0  0
   -4.4543   -1.5749    0.0000 C   0  0  0
   -6.1937    0.3526    0.0000 C   0  0  0
    2.5386    5.4767    0.0000 C   0  0  0
    2.0332    7.8508    0.0000 C   0  0  0
   -5.5825   -2.5621    0.0000 C   0  0  0
   -7.3219   -0.6346    0.0000 C   0  0  0
    3.8196    6.2407    0.0000 C   0  0  0
    3.5141    7.7098    0.0000 C   0  0  0
   -7.0163   -2.0920    0.0000 C   0  0  0
   -5.2770   -4.0194    0.0000 C   0  0  0
    5.3005    6.4052    0.0000 C   0  0  0
    4.6893    5.0419    0.0000 C   0  0  0
   -4.0312   -4.8304    0.0000 C   0  0  0
   -6.1114   -5.2652    0.0000 C   0  0  0
   -6.7108   -3.5493    0.0000 C   0  0  0
   -4.8656   -6.0761    0.0000 O   0  0  0
   -7.8390   -4.5365    0.0000 C   0  0  0
   -9.3199   -4.2075    0.0000 N   0  0  0
   -7.6980   -6.0174    0.0000 C   0  0  0
  -10.0838   -5.5003    0.0000 O   0  0  0
   -9.0848   -6.6168    0.0000 C   0  0  0
   -6.4052   -6.7578    0.0000 C   0  0  0
  1  2  1
  2  3  1
  2  4  1
  2  5  1
  5  6  2
  5  7  1
  6  8  1
  6  9  1
  7 10  2
  8 11  1
  8 12  2
  9 13  1
 10 14  1
 11 15  2
 13 16  1
 14 17  1
 16 18  2
 16 19  1
 17 20  1
 17 21  1
 18 22  1
 19 23  2
 20 24  1
 21 25  1
 22 26  2
 22 27  1
 24 28  1
 24 29  1
 27 30  1
 27 31  1
 27 32  1
 30 33  1
 32 34  1
 34 35  2
 34 36  1
 35 37  1
 36 38  2
 36 39  1
 10 12  1
 11 13  1
 23 26  1
 24 25  1
 28 29  1
 31 33  1
 37 38  1
M  END
> <COMPOUND_NAMES>
Example 535 (Page No: 671)

> <Reference>
WO2019148005

> <IC50_range_nM>
<100

> <smiles>
Cc1conc1CC1(COC1)c1cccc(c1)N1Cc2c(cc(CN3CCC4(CC4)C3)cc2C(F)(F)F)C1=O

$$$$
C22H20F3N3O
  MOLSOFT 03092310482D

 29 32  0  0  1  0  0  0  0  0999 V2000
    0.0000   -0.0000    0.0000 F   0  0  0
    1.1026    1.0088    0.0000 C   0  0  0
    2.0996   -0.0938    0.0000 F   0  0  0
    2.2052    2.0293    0.0000 F   0  0  0
    0.0821    2.1348    0.0000 C   0  0  0
   -1.3959    1.8299    0.0000 C   0  0  0
    0.5278    3.5659    0.0000 C   0  0  0
   -2.4164    2.9559    0.0000 C   0  0  0
   -2.1583    0.5396    0.0000 C   0  0  0
   -0.4927    4.6919    0.0000 C   0  0  0
   -3.8005    2.3577    0.0000 C   0  0  0
   -1.9706    4.3870    0.0000 C   0  0  0
   -3.6363    0.8680    0.0000 N   0  0  0
   -5.1142    3.1201    0.0000 O   0  0  0
   -4.7623   -0.1290    0.0000 C   0  0  0
   -4.4573   -1.5835    0.0000 C   0  0  0
   -6.1934    0.3402    0.0000 C   0  0  0
   -5.5834   -2.5688    0.0000 C   0  0  0
   -7.3194   -0.6569    0.0000 C   0  0  0
   -7.0262   -2.0996    0.0000 C   0  0  0
   -5.2784   -4.0233    0.0000 C   0  0  1
   -3.8591   -4.4691    0.0000 C   0  0  0
   -6.4045   -5.0204    0.0000 C   0  0  0
   -3.5541   -5.9236    0.0000 C   0  0  0
   -4.5629   -7.0262    0.0000 N   0  0  0
   -2.1935   -6.5218    0.0000 C   0  0  0
   -3.8239   -8.3165    0.0000 C   0  0  0
   -2.3577   -7.9998    0.0000 N   0  0  0
   -0.9032   -5.7594    0.0000 C   0  0  0
  1  2  1
  2  3  1
  2  4  1
  2  5  1
  5  6  2
  5  7  1
  6  8  1
  6  9  1
  7 10  2
  8 11  1
  8 12  2
  9 13  1
 11 14  2
 13 15  1
 15 16  2
 15 17  1
 16 18  1
 17 19  2
 18 20  2
 21 18  1
 21 22  1
 21 23  1  1  0
 22 24  1
 24 25  1
 24 26  2
 25 27  2
 26 28  1
 26 29  1
 10 12  1
 11 13  1
 19 20  1
 27 28  1
M  END
> <COMPOUND_NAMES>
Example 272a (R) (Page No: 482)

> <Reference>
WO2019148005

> <IC50_range_nM>
101-300

> <smiles>
Cc1c(C[C@@H](C)c2cccc(c2)N2Cc3c(cccc3C(F)(F)F)C2=O)nc[nH]1

$$$$
C22H20F3N3O
  MOLSOFT 03092310482D

 29 32  0  0  1  0  0  0  0  0999 V2000
    0.0000   -0.0000    0.0000 F   0  0  0
    1.1026    1.0088    0.0000 C   0  0  0
    2.0996   -0.0938    0.0000 F   0  0  0
    2.2052    2.0293    0.0000 F   0  0  0
    0.0821    2.1348    0.0000 C   0  0  0
   -1.3959    1.8299    0.0000 C   0  0  0
    0.5278    3.5659    0.0000 C   0  0  0
   -2.4164    2.9559    0.0000 C   0  0  0
   -2.1583    0.5396    0.0000 C   0  0  0
   -0.4927    4.6919    0.0000 C   0  0  0
   -3.8005    2.3577    0.0000 C   0  0  0
   -1.9706    4.3870    0.0000 C   0  0  0
   -3.6363    0.8680    0.0000 N   0  0  0
   -5.1142    3.1201    0.0000 O   0  0  0
   -4.7623   -0.1290    0.0000 C   0  0  0
   -4.4573   -1.5835    0.0000 C   0  0  0
   -6.1934    0.3402    0.0000 C   0  0  0
   -5.5834   -2.5688    0.0000 C   0  0  0
   -7.3194   -0.6569    0.0000 C   0  0  0
   -7.0262   -2.0996    0.0000 C   0  0  0
   -5.2784   -4.0233    0.0000 C   0  0  1
   -3.8591   -4.4691    0.0000 C   0  0  0
   -6.4045   -5.0204    0.0000 C   0  0  0
   -3.5541   -5.9236    0.0000 C   0  0  0
   -4.5629   -7.0262    0.0000 N   0  0  0
   -2.1935   -6.5218    0.0000 C   0  0  0
   -3.8239   -8.3165    0.0000 C   0  0  0
   -2.3577   -7.9998    0.0000 N   0  0  0
   -0.9032   -5.7594    0.0000 C   0  0  0
  1  2  1
  2  3  1
  2  4  1
  2  5  1
  5  6  2
  5  7  1
  6  8  1
  6  9  1
  7 10  2
  8 11  1
  8 12  2
  9 13  1
 11 14  2
 13 15  1
 15 16  2
 15 17  1
 16 18  1
 17 19  2
 18 20  2
 21 18  1
 21 22  1
 21 23  1  1  0
 22 24  1
 24 25  1
 24 26  2
 25 27  2
 26 28  1
 26 29  1
 10 12  1
 11 13  1
 19 20  1
 27 28  1
M  END
> <COMPOUND_NAMES>
Example 272 (+/-) (Page No: 481)

> <Reference>
WO2019148005

> <IC50_range_nM>
301-1000

> <smiles>
Cc1c(C[C@@H](C)c2cccc(c2)N2Cc3c(cccc3C(F)(F)F)C2=O)nc[nH]1

$$$$
C22H20F3N3O
  MOLSOFT 03092310482D

 29 32  0  0  1  0  0  0  0  0999 V2000
    0.0000   -0.0000    0.0000 F   0  0  0
    1.1043    1.0103    0.0000 C   0  0  0
    2.0911   -0.0940    0.0000 F   0  0  0
    2.2086    2.0206    0.0000 F   0  0  0
    0.0940    2.1381    0.0000 C   0  0  0
   -1.3862    1.8327    0.0000 C   0  0  0
    0.5404    3.5713    0.0000 C   0  0  0
   -2.3965    2.9604    0.0000 C   0  0  0
   -2.1498    0.5404    0.0000 C   0  0  0
   -0.4699    4.6991    0.0000 C   0  0  0
   -3.7828    2.3613    0.0000 C   0  0  0
   -1.9501    4.3937    0.0000 C   0  0  0
   -3.6301    0.8693    0.0000 N   0  0  0
   -5.0985    3.1249    0.0000 O   0  0  0
   -4.7579   -0.1175    0.0000 C   0  0  0
   -4.4524   -1.5742    0.0000 C   0  0  0
   -6.1911    0.3524    0.0000 C   0  0  0
   -5.5802   -2.5610    0.0000 C   0  0  0
   -7.3189   -0.6344    0.0000 C   0  0  0
   -7.0134   -2.0911    0.0000 C   0  0  0
   -5.2748   -4.0177    0.0000 C   0  0  1
   -3.8650   -4.4642    0.0000 C   0  0  0
   -6.4025   -5.0046    0.0000 C   0  0  0
   -3.5596   -5.9209    0.0000 C   0  0  0
   -2.1968   -6.5200    0.0000 N   0  0  0
   -4.5699   -7.0252    0.0000 N   0  0  0
   -2.3613   -8.0002    0.0000 C   0  0  0
   -3.8298   -8.3057    0.0000 C   0  0  0
   -6.0736   -6.8607    0.0000 C   0  0  0
  1  2  1
  2  3  1
  2  4  1
  2  5  1
  5  6  2
  5  7  1
  6  8  1
  6  9  1
  7 10  2
  8 11  1
  8 12  2
  9 13  1
 11 14  2
 13 15  1
 15 16  2
 15 17  1
 16 18  1
 17 19  2
 18 20  2
 21 18  1
 21 22  1
 21 23  1  1  0
 22 24  1
 24 25  2
 24 26  1
 25 27  1
 26 28  1
 26 29  1
 10 12  1
 11 13  1
 19 20  1
 27 28  2
M  END
> <COMPOUND_NAMES>
Example 267a (R) (Page No: 478)

> <Reference>
WO2019148005

> <IC50_range_nM>
1001-3000

> <smiles>
C[C@H](Cc1nccn1C)c1cccc(c1)N1Cc2c(cccc2C(F)(F)F)C1=O

$$$$
C22H20F3N3O
  MOLSOFT 03092310482D

 29 32  0  0  0  0  0  0  0  0999 V2000
    0.0000   -0.0000    0.0000 F   0  0  0
    1.1043    1.0103    0.0000 C   0  0  0
    2.0911   -0.0940    0.0000 F   0  0  0
    2.2086    2.0206    0.0000 F   0  0  0
    0.0940    2.1381    0.0000 C   0  0  0
   -1.3862    1.8327    0.0000 C   0  0  0
    0.5404    3.5713    0.0000 C   0  0  0
   -2.3965    2.9604    0.0000 C   0  0  0
   -2.1498    0.5404    0.0000 C   0  0  0
   -0.4699    4.6991    0.0000 C   0  0  0
   -3.7828    2.3613    0.0000 C   0  0  0
   -1.9501    4.3937    0.0000 C   0  0  0
   -3.6301    0.8693    0.0000 N   0  0  0
   -5.0985    3.1249    0.0000 O   0  0  0
   -4.7579   -0.1175    0.0000 C   0  0  0
   -4.4524   -1.5742    0.0000 C   0  0  0
   -6.1911    0.3524    0.0000 C   0  0  0
   -5.5802   -2.5610    0.0000 C   0  0  0
   -7.3189   -0.6344    0.0000 C   0  0  0
   -7.0134   -2.0911    0.0000 C   0  0  0
   -5.2748   -4.0177    0.0000 C   0  0  3
   -3.8650   -4.4642    0.0000 C   0  0  0
   -6.4025   -5.0046    0.0000 C   0  0  0
   -3.5596   -5.9209    0.0000 C   0  0  0
   -2.1968   -6.5200    0.0000 N   0  0  0
   -4.5699   -7.0252    0.0000 N   0  0  0
   -2.3613   -8.0002    0.0000 C   0  0  0
   -3.8298   -8.3057    0.0000 C   0  0  0
   -6.0736   -6.8607    0.0000 C   0  0  0
  1  2  1
  2  3  1
  2  4  1
  2  5  1
  5  6  2
  5  7  1
  6  8  1
  6  9  1
  7 10  2
  8 11  1
  8 12  2
  9 13  1
 11 14  2
 13 15  1
 15 16  2
 15 17  1
 16 18  1
 17 19  2
 18 20  2
 21 18  1
 21 22  1
 21 23  1
 22 24  1
 24 25  2
 24 26  1
 25 27  1
 26 28  1
 26 29  1
 10 12  1
 11 13  1
 19 20  1
 27 28  2
M  END
> <COMPOUND_NAMES>
Example 267 (+/-) (Page No: 477)

> <Reference>
WO2019148005

> <IC50_range_nM>
3001-10000

> <smiles>
CC(Cc1nccn1C)c1cccc(c1)N1Cc2c(cccc2C(F)(F)F)C1=O

$$$$
C21H17F3N2O2
  MOLSOFT 03092310482D

 28 31  0  0  1  0  0  0  0  0999 V2000
    0.0000   -0.0000    0.0000 F   0  0  0
    1.1026    1.0087    0.0000 C   0  0  0
    2.0996   -0.0938    0.0000 F   0  0  0
    2.2052    2.0292    0.0000 F   0  0  0
    0.0821    2.1348    0.0000 C   0  0  0
   -1.3958    1.8298    0.0000 C   0  0  0
    0.5278    3.5658    0.0000 C   0  0  0
   -2.4163    2.9558    0.0000 C   0  0  0
   -2.1582    0.5396    0.0000 C   0  0  0
   -0.4926    4.6918    0.0000 C   0  0  0
   -3.8004    2.3576    0.0000 C   0  0  0
   -1.9706    4.3868    0.0000 C   0  0  0
   -3.6362    0.8680    0.0000 N   0  0  0
   -5.1141    3.1201    0.0000 O   0  0  0
   -4.7622   -0.1290    0.0000 C   0  0  0
   -4.4572   -1.5835    0.0000 C   0  0  0
   -6.1932    0.3402    0.0000 C   0  0  0
   -5.5833   -2.5688    0.0000 C   0  0  0
   -7.3192   -0.6569    0.0000 C   0  0  0
   -7.0260   -2.0996    0.0000 C   0  0  0
   -5.2783   -4.0232    0.0000 C   0  0  1
   -3.8590   -4.4690    0.0000 C   0  0  0
   -6.4043   -5.0202    0.0000 C   0  0  0
   -3.5540   -5.9234    0.0000 C   0  0  0
   -4.5628   -7.0260    0.0000 O   0  0  0
   -2.1934   -6.5216    0.0000 N   0  0  0
   -3.8238   -8.3162    0.0000 C   0  0  0
   -2.3576   -7.9995    0.0000 C   0  0  0
  1  2  1
  2  3  1
  2  4  1
  2  5  1
  5  6  2
  5  7  1
  6  8  1
  6  9  1
  7 10  2
  8 11  1
  8 12  2
  9 13  1
 11 14  2
 13 15  1
 15 16  2
 15 17  1
 16 18  1
 17 19  2
 18 20  2
 21 18  1
 21 22  1
 21 23  1  1  0
 22 24  1
 24 25  1
 24 26  2
 25 27  1
 26 28  1
 10 12  1
 11 13  1
 19 20  1
 27 28  2
M  END
> <COMPOUND_NAMES>
Example 261 (R) (Page No: 475)

> <Reference>
WO2019148005

> <IC50_range_nM>
3001-10000

> <smiles>
C[C@H](Cc1ncco1)c1cccc(c1)N1Cc2c(cccc2C(F)(F)F)C1=O

$$$$
C20H16F3N3OS
  MOLSOFT 03092310482D

 28 31  0  0  1  0  0  0  0  0999 V2000
    0.0000   -0.0000    0.0000 S   0  0  0
    0.9868    1.1278    0.0000 C   0  0  0
    0.7401   -1.2806    0.0000 C   0  0  0
    2.3496    0.5287    0.0000 N   0  0  0
    0.6579    2.6081    0.0000 C   0  0  0
    2.1969   -0.9516    0.0000 N   0  0  0
   -0.7754    3.0780    0.0000 C   0  0  2
   -1.1043    4.5583    0.0000 C   0  0  0
   -1.9032    2.0912    0.0000 C   0  0  0
    0.0000    5.5687    0.0000 C   0  0  0
   -2.5376    5.0282    0.0000 C   0  0  0
   -0.3289    7.0489    0.0000 C   0  0  0
   -2.8666    6.5085    0.0000 C   0  0  0
    0.7754    8.0593    0.0000 N   0  0  0
   -1.7622    7.5189    0.0000 C   0  0  0
    0.6109    9.5630    0.0000 C   0  0  0
    2.2322    7.7538    0.0000 C   0  0  0
   -0.7049   10.3267    0.0000 O   0  0  0
    1.9737   10.1857    0.0000 C   0  0  0
    2.9723    9.0696    0.0000 C   0  0  0
    2.4201   11.6190    0.0000 C   0  0  0
    4.4291    9.3986    0.0000 C   0  0  0
    3.8769   11.9479    0.0000 C   0  0  0
    4.8755   10.8319    0.0000 C   0  0  0
    5.4159    8.2942    0.0000 C   0  0  0
    4.2881    7.3074    0.0000 F   0  0  0
    6.4028    7.1899    0.0000 F   0  0  0
    6.5203    9.3046    0.0000 F   0  0  0
  1  2  1
  1  3  1
  2  4  2
  2  5  1
  3  6  2
  7  5  1
  7  8  1
  7  9  1  1  0
  8 10  2
  8 11  1
 10 12  1
 11 13  2
 12 14  1
 12 15  2
 14 16  1
 14 17  1
 16 18  2
 16 19  1
 17 20  1
 19 21  1
 20 22  1
 21 23  2
 22 24  2
 22 25  1
 25 26  1
 25 27  1
 25 28  1
  4  6  1
 13 15  1
 19 20  2
 23 24  1
M  END
> <COMPOUND_NAMES>
Example 368 (R) (Page No: 548)

> <Reference>
WO2019148005

> <IC50_range_nM>
301-1000

> <smiles>
C[C@H](Cc1nncs1)c1cccc(c1)N1Cc2c(cccc2C(F)(F)F)C1=O

$$$$
C20H16F3N3O2
  MOLSOFT 03092310482D

 28 31  0  0  1  0  0  0  0  0999 V2000
    0.0000   -0.0000    0.0000 F   0  0  0
    1.1026    1.0087    0.0000 C   0  0  0
    2.0996   -0.0938    0.0000 F   0  0  0
    2.2052    2.0292    0.0000 F   0  0  0
    0.0821    2.1348    0.0000 C   0  0  0
   -1.3958    1.8298    0.0000 C   0  0  0
    0.5278    3.5658    0.0000 C   0  0  0
   -2.4163    2.9558    0.0000 C   0  0  0
   -2.1582    0.5396    0.0000 C   0  0  0
   -0.4926    4.6918    0.0000 C   0  0  0
   -3.8004    2.3576    0.0000 C   0  0  0
   -1.9706    4.3868    0.0000 C   0  0  0
   -3.6362    0.8680    0.0000 N   0  0  0
   -5.1141    3.1201    0.0000 O   0  0  0
   -4.7622   -0.1290    0.0000 C   0  0  0
   -4.4572   -1.5835    0.0000 C   0  0  0
   -6.1932    0.3402    0.0000 C   0  0  0
   -5.5833   -2.5688    0.0000 C   0  0  0
   -7.3192   -0.6569    0.0000 C   0  0  0
   -7.0260   -2.0996    0.0000 C   0  0  0
   -5.2783   -4.0232    0.0000 C   0  0  1
   -3.8590   -4.4690    0.0000 C   0  0  0
   -6.4043   -5.0202    0.0000 C   0  0  0
   -3.5540   -5.9234    0.0000 C   0  0  0
   -4.5628   -7.0260    0.0000 O   0  0  0
   -2.1934   -6.5216    0.0000 N   0  0  0
   -3.8238   -8.3162    0.0000 C   0  0  0
   -2.3576   -7.9995    0.0000 N   0  0  0
  1  2  1
  2  3  1
  2  4  1
  2  5  1
  5  6  2
  5  7  1
  6  8  1
  6  9  1
  7 10  2
  8 11  1
  8 12  2
  9 13  1
 11 14  2
 13 15  1
 15 16  2
 15 17  1
 16 18  1
 17 19  2
 18 20  2
 21 18  1
 21 22  1
 21 23  1  1  0
 22 24  1
 24 25  1
 24 26  2
 25 27  1
 26 28  1
 10 12  1
 11 13  1
 19 20  1
 27 28  2
M  END
> <COMPOUND_NAMES>
Example 266 (R) (Page No: 477)

> <Reference>
WO2019148005

> <IC50_range_nM>
3001-10000

> <smiles>
C[C@H](Cc1nnco1)c1cccc(c1)N1Cc2c(cccc2C(F)(F)F)C1=O

$$$$
C27H27F3N4O3
  MOLSOFT 03092310482D

 37 41  0  0  1  0  0  0  0  0999 V2000
    0.0000   -0.0000    0.0000 F   0  0  0
    1.1049    1.0109    0.0000 C   0  0  0
    2.0923   -0.0940    0.0000 F   0  0  0
    2.2098    2.0217    0.0000 F   0  0  0
    0.0940    2.1393    0.0000 C   0  0  0
   -1.3870    1.8337    0.0000 C   0  0  0
    0.5407    3.5733    0.0000 C   0  0  0
   -2.3979    2.9621    0.0000 C   0  0  0
   -2.1510    0.5407    0.0000 C   0  0  0
   -0.4702    4.7017    0.0000 C   0  0  0
   -3.7849    2.3626    0.0000 C   0  0  0
   -1.9512    4.3961    0.0000 C   0  0  0
   -3.6321    0.8698    0.0000 N   0  0  0
   -0.0235    6.1357    0.0000 C   0  0  0
   -5.1013    3.1266    0.0000 O   0  0  0
   -4.7605   -0.1175    0.0000 C   0  0  0
   -1.0344    7.2641    0.0000 O   0  0  0
    1.4340    6.4648    0.0000 N   0  0  0
   -4.4549   -1.5751    0.0000 C   0  0  0
   -6.1945    0.3526    0.0000 C   0  0  0
    2.5389    5.4775    0.0000 C   0  0  0
    2.0335    7.8518    0.0000 C   0  0  0
   -5.5833   -2.5624    0.0000 C   0  0  0
   -7.3229   -0.6347    0.0000 C   0  0  0
    3.8201    6.2415    0.0000 C   0  0  2
    3.5145    7.7108    0.0000 C   0  0  0
   -7.0173   -2.0923    0.0000 C   0  0  0
   -5.2777   -4.0200    0.0000 C   0  0  2
    5.1836    5.6420    0.0000 O   0  0  0
   -3.8671   -4.4666    0.0000 C   0  0  0
   -6.4061   -5.0073    0.0000 C   0  0  0
   -3.5615   -5.9241    0.0000 C   0  0  0
   -2.1980   -6.5236    0.0000 N   0  0  0
   -4.5724   -7.0290    0.0000 C   0  0  0
   -2.3626   -8.0046    0.0000 N   0  0  0
   -3.8319   -8.3103    0.0000 C   0  0  0
   -6.0769   -6.8645    0.0000 C   0  0  0
  1  2  1
  2  3  1
  2  4  1
  2  5  1
  5  6  2
  5  7  1
  6  8  1
  6  9  1
  7 10  2
  8 11  1
  8 12  2
  9 13  1
 10 14  1
 11 15  2
 13 16  1
 14 17  2
 14 18  1
 16 19  2
 16 20  1
 18 21  1
 18 22  1
 19 23  1
 20 24  2
 25 21  1
 22 26  1
 23 27  2
 28 23  1
 25 29  1  6  0
 28 30  1
 28 31  1  6  0
 30 32  1
 32 33  2
 32 34  1
 33 35  1
 34 36  2
 34 37  1
 10 12  1
 11 13  1
 24 27  1
 25 26  1
 35 36  1
M  END
> <COMPOUND_NAMES>
Example 463 (Stereo) (Page No: 606)

> <Reference>
WO2019148005

> <IC50_range_nM>
<100

> <smiles>
Cc1c[nH]nc1C[C@H](C)c1cccc(c1)N1Cc2c(cc(cc2C(F)(F)F)C(N2CC[C@@H](C2)O)=O)C1=O

$$$$
C28H29F3N4O3
  MOLSOFT 03092310482D

 38 42  0  0  1  0  0  0  0  0999 V2000
    0.0000   -0.0000    0.0000 F   0  0  0
    1.1049    1.0109    0.0000 C   0  0  0
    2.0923   -0.0940    0.0000 F   0  0  0
    2.2098    2.0217    0.0000 F   0  0  0
    0.0940    2.1393    0.0000 C   0  0  0
   -1.3870    1.8337    0.0000 C   0  0  0
    0.5407    3.5733    0.0000 C   0  0  0
   -2.3979    2.9621    0.0000 C   0  0  0
   -2.1510    0.5407    0.0000 C   0  0  0
   -0.4702    4.7017    0.0000 C   0  0  0
   -3.7849    2.3626    0.0000 C   0  0  0
   -1.9512    4.3961    0.0000 C   0  0  0
   -3.6321    0.8698    0.0000 N   0  0  0
   -0.0235    6.1357    0.0000 C   0  0  0
   -5.1013    3.1266    0.0000 O   0  0  0
   -4.7605   -0.1175    0.0000 C   0  0  0
   -1.0344    7.2641    0.0000 O   0  0  0
    1.4340    6.4648    0.0000 N   0  0  0
   -4.4549   -1.5751    0.0000 C   0  0  0
   -6.1945    0.3526    0.0000 C   0  0  0
    2.5389    5.4775    0.0000 C   0  0  1
    2.0335    7.8518    0.0000 C   0  0  0
   -5.5833   -2.5624    0.0000 C   0  0  0
   -7.3229   -0.6347    0.0000 C   0  0  0
    3.8201    6.2415    0.0000 C   0  0  0
    2.3744    3.9964    0.0000 C   0  0  0
    3.5145    7.7108    0.0000 C   0  0  2
   -7.0173   -2.0923    0.0000 C   0  0  0
   -5.2776   -4.0199    0.0000 C   0  0  1
    4.5019    8.8392    0.0000 O   0  0  0
   -3.8671   -4.4666    0.0000 C   0  0  0
   -6.4061   -5.0073    0.0000 C   0  0  0
   -3.5615   -5.9241    0.0000 C   0  0  0
   -2.1980   -6.5236    0.0000 N   0  0  0
   -4.5724   -7.0290    0.0000 C   0  0  0
   -2.3626   -8.0046    0.0000 N   0  0  0
   -3.8319   -8.3102    0.0000 C   0  0  0
   -6.0769   -6.8645    0.0000 C   0  0  0
  1  2  1
  2  3  1
  2  4  1
  2  5  1
  5  6  2
  5  7  1
  6  8  1
  6  9  1
  7 10  2
  8 11  1
  8 12  2
  9 13  1
 10 14  1
 11 15  2
 13 16  1
 14 17  2
 14 18  1
 16 19  2
 16 20  1
 21 18  1
 18 22  1
 19 23  1
 20 24  2
 21 25  1
 21 26  1  1  0
 27 22  1
 23 28  2
 29 23  1
 27 30  1  1  0
 29 31  1
 29 32  1  1  0
 31 33  1
 33 34  2
 33 35  1
 34 36  1
 35 37  2
 35 38  1
 10 12  1
 11 13  1
 24 28  1
 27 25  1
 36 37  1
M  END
> <COMPOUND_NAMES>
Example 464 (Stereo) (Page No: 607)

> <Reference>
WO2019148005

> <IC50_range_nM>
<100

> <smiles>
Cc1c[nH]nc1C[C@@H](C)c1cccc(c1)N1Cc2c(cc(cc2C(F)(F)F)C(N2C[C@H](C[C@H]2C)O)=O)C1=O

$$$$
C27H24F6N4O3
  MOLSOFT 03092310482D

 40 44  0  0  1  0  0  0  0  0999 V2000
    0.0000   -0.0000    0.0000 F   0  0  0
    1.1047    1.0106    0.0000 C   0  0  0
    2.0918   -0.0940    0.0000 F   0  0  0
    2.2093    2.0213    0.0000 F   0  0  0
    0.0940    2.1388    0.0000 C   0  0  0
   -1.3867    1.8333    0.0000 C   0  0  0
    0.5406    3.5725    0.0000 C   0  0  0
   -2.3973    2.9614    0.0000 C   0  0  0
   -2.1505    0.5406    0.0000 C   0  0  0
   -0.4701    4.7006    0.0000 C   0  0  0
   -3.7840    2.3621    0.0000 C   0  0  0
   -1.9508    4.3951    0.0000 C   0  0  0
   -3.6312    0.8696    0.0000 N   0  0  0
   -0.0235    6.1343    0.0000 C   0  0  0
   -5.1002    3.1259    0.0000 O   0  0  0
   -4.7594   -0.1175    0.0000 C   0  0  0
   -1.0341    7.2625    0.0000 O   0  0  0
    1.4337    6.4634    0.0000 N   0  0  0
   -4.4539   -1.5747    0.0000 C   0  0  0
   -6.1931    0.3525    0.0000 C   0  0  0
    2.5383    5.4763    0.0000 C   0  0  0
    2.0330    7.8501    0.0000 C   0  0  0
   -5.5820   -2.5619    0.0000 C   0  0  0
   -7.3213   -0.6346    0.0000 C   0  0  0
    3.8193    6.2401    0.0000 C   0  0  2
    3.5137    7.7091    0.0000 C   0  0  0
   -7.0157   -2.0918    0.0000 C   0  0  0
   -5.2765   -4.0191    0.0000 C   0  0  1
    5.1825    5.6408    0.0000 O   0  0  0
   -3.8663   -4.4656    0.0000 C   0  0  0
   -6.4046   -5.0062    0.0000 C   0  0  0
   -3.5607   -5.9228    0.0000 C   0  0  0
   -2.1976   -6.5221    0.0000 N   0  0  0
   -4.5714   -7.0275    0.0000 C   0  0  0
   -2.3621   -8.0028    0.0000 N   0  0  0
   -3.8310   -8.3084    0.0000 C   0  0  0
   -6.0756   -6.8629    0.0000 C   0  0  0
   -5.9346   -5.3587    0.0000 F   0  0  0
   -7.5798   -6.6984    0.0000 F   0  0  0
   -6.2401   -8.3436    0.0000 F   0  0  0
  1  2  1
  2  3  1
  2  4  1
  2  5  1
  5  6  2
  5  7  1
  6  8  1
  6  9  1
  7 10  2
  8 11  1
  8 12  2
  9 13  1
 10 14  1
 11 15  2
 13 16  1
 14 17  2
 14 18  1
 16 19  2
 16 20  1
 18 21  1
 18 22  1
 19 23  1
 20 24  2
 25 21  1
 22 26  1
 23 27  2
 28 23  1
 25 29  1  6  0
 28 30  1
 28 31  1  1  0
 30 32  1
 32 33  2
 32 34  1
 33 35  1
 34 36  2
 34 37  1
 37 38  1
 37 39  1
 37 40  1
 10 12  1
 11 13  1
 24 27  1
 25 26  1
 35 36  1
M  END
> <COMPOUND_NAMES>
Example 465 (Stereo) (Page No: 608)

> <Reference>
WO2019148005

> <IC50_range_nM>
<100

> <smiles>
C[C@H](Cc1c(c[nH]n1)C(F)(F)F)c1cccc(c1)N1Cc2c(cc(cc2C(F)(F)F)C(N2CC[C@@H](C2)O)=O)C1=O

$$$$
C22H20F3N3O
  MOLSOFT 03092310482D

 29 32  0  0  1  0  0  0  0  0999 V2000
    0.0000   -0.0000    0.0000 F   0  0  0
    1.1043    1.0103    0.0000 C   0  0  0
    2.0911   -0.0940    0.0000 F   0  0  0
    2.2086    2.0206    0.0000 F   0  0  0
    0.0940    2.1381    0.0000 C   0  0  0
   -1.3862    1.8327    0.0000 C   0  0  0
    0.5404    3.5713    0.0000 C   0  0  0
   -2.3965    2.9604    0.0000 C   0  0  0
   -2.1498    0.5404    0.0000 C   0  0  0
   -0.4699    4.6991    0.0000 C   0  0  0
   -3.7828    2.3613    0.0000 C   0  0  0
   -1.9501    4.3937    0.0000 C   0  0  0
   -3.6301    0.8693    0.0000 N   0  0  0
   -5.0985    3.1249    0.0000 O   0  0  0
   -4.7579   -0.1175    0.0000 C   0  0  0
   -4.4524   -1.5742    0.0000 C   0  0  0
   -6.1911    0.3524    0.0000 C   0  0  0
   -5.5802   -2.5610    0.0000 C   0  0  0
   -7.3189   -0.6344    0.0000 C   0  0  0
   -7.0134   -2.0911    0.0000 C   0  0  0
   -5.2748   -4.0177    0.0000 C   0  0  2
   -3.8650   -4.4642    0.0000 C   0  0  0
   -6.4025   -5.0046    0.0000 C   0  0  0
   -3.5596   -5.9209    0.0000 C   0  0  0
   -2.1968   -6.5200    0.0000 N   0  0  0
   -4.5699   -7.0252    0.0000 C   0  0  0
   -2.3613   -8.0002    0.0000 N   0  0  0
   -3.8298   -8.3057    0.0000 C   0  0  0
   -6.0736   -6.8607    0.0000 C   0  0  0
  1  2  1
  2  3  1
  2  4  1
  2  5  1
  5  6  2
  5  7  1
  6  8  1
  6  9  1
  7 10  2
  8 11  1
  8 12  2
  9 13  1
 11 14  2
 13 15  1
 15 16  2
 15 17  1
 16 18  1
 17 19  2
 18 20  2
 21 18  1
 21 22  1
 21 23  1  6  0
 22 24  1
 24 25  2
 24 26  1
 25 27  1
 26 28  2
 26 29  1
 10 12  1
 11 13  1
 19 20  1
 27 28  1
M  END
> <COMPOUND_NAMES>
Example 270a (S) (Page No: 479)

> <Reference>
WO2019148005

> <IC50_range_nM>
301-1000

> <smiles>
Cc1c[nH]nc1C[C@H](C)c1cccc(c1)N1Cc2c(cccc2C(F)(F)F)C1=O

$$$$
C22H20F3N3O2
  MOLSOFT 03092310482D

 30 33  0  0  1  0  0  0  0  0999 V2000
    0.0000   -0.0000    0.0000 F   0  0  0
    1.1044    1.0104    0.0000 C   0  0  0
    2.0913   -0.0940    0.0000 F   0  0  0
    2.2088    2.0209    0.0000 F   0  0  0
    0.0940    2.1383    0.0000 C   0  0  0
   -1.3864    1.8329    0.0000 C   0  0  0
    0.5405    3.5717    0.0000 C   0  0  0
   -2.3968    2.9608    0.0000 C   0  0  0
   -2.1501    0.5405    0.0000 C   0  0  0
   -0.4700    4.6997    0.0000 C   0  0  0
   -3.7832    2.3616    0.0000 C   0  0  0
   -1.9504    4.3942    0.0000 C   0  0  0
   -3.6305    0.8694    0.0000 N   0  0  0
   -5.0991    3.1253    0.0000 O   0  0  0
   -4.7584   -0.1175    0.0000 C   0  0  0
   -4.4529   -1.5744    0.0000 C   0  0  0
   -6.1918    0.3525    0.0000 C   0  0  0
   -5.5808   -2.5613    0.0000 C   0  0  0
   -7.3197   -0.6345    0.0000 C   0  0  0
   -7.0142   -2.0913    0.0000 C   0  0  0
   -5.2754   -4.0182    0.0000 C   0  0  1
   -3.8655   -4.4647    0.0000 C   0  0  0
   -6.4033   -5.0051    0.0000 C   0  0  0
   -3.5600   -5.9216    0.0000 C   0  0  0
   -2.1971   -6.5208    0.0000 N   0  0  0
   -4.5704   -7.0260    0.0000 C   0  0  0
   -2.3616   -8.0012    0.0000 N   0  0  0
   -3.8302   -8.3066    0.0000 C   0  0  0
   -6.0743   -6.8615    0.0000 C   0  0  0
   -6.9672   -8.0599    0.0000 O   0  0  0
  1  2  1
  2  3  1
  2  4  1
  2  5  1
  5  6  2
  5  7  1
  6  8  1
  6  9  1
  7 10  2
  8 11  1
  8 12  2
  9 13  1
 11 14  2
 13 15  1
 15 16  2
 15 17  1
 16 18  1
 17 19  2
 18 20  2
 21 18  1
 21 22  1
 21 23  1  1  0
 22 24  1
 24 25  2
 24 26  1
 25 27  1
 26 28  2
 26 29  1
 29 30  1
 10 12  1
 11 13  1
 19 20  1
 27 28  1
M  END
> <COMPOUND_NAMES>
Example 271b (R) (Page No: 480)

> <Reference>
WO2019148005

> <IC50_range_nM>
1001-3000

> <smiles>
C[C@H](Cc1c(CO)c[nH]n1)c1cccc(c1)N1Cc2c(cccc2C(F)(F)F)C1=O

$$$$
C22H20F3N3O2
  MOLSOFT 03092310482D

 30 33  0  0  0  0  0  0  0  0999 V2000
    0.0000   -0.0000    0.0000 F   0  0  0
    1.1044    1.0104    0.0000 C   0  0  0
    2.0913   -0.0940    0.0000 F   0  0  0
    2.2088    2.0209    0.0000 F   0  0  0
    0.0940    2.1383    0.0000 C   0  0  0
   -1.3864    1.8329    0.0000 C   0  0  0
    0.5405    3.5717    0.0000 C   0  0  0
   -2.3968    2.9608    0.0000 C   0  0  0
   -2.1501    0.5405    0.0000 C   0  0  0
   -0.4700    4.6997    0.0000 C   0  0  0
   -3.7832    2.3616    0.0000 C   0  0  0
   -1.9504    4.3942    0.0000 C   0  0  0
   -3.6305    0.8694    0.0000 N   0  0  0
   -5.0991    3.1253    0.0000 O   0  0  0
   -4.7584   -0.1175    0.0000 C   0  0  0
   -4.4529   -1.5744    0.0000 C   0  0  0
   -6.1918    0.3525    0.0000 C   0  0  0
   -5.5808   -2.5613    0.0000 C   0  0  0
   -7.3197   -0.6345    0.0000 C   0  0  0
   -7.0142   -2.0913    0.0000 C   0  0  0
   -5.2754   -4.0182    0.0000 C   0  0  3
   -3.8655   -4.4647    0.0000 C   0  0  0
   -6.4033   -5.0051    0.0000 C   0  0  0
   -3.5600   -5.9216    0.0000 C   0  0  0
   -2.1971   -6.5208    0.0000 N   0  0  0
   -4.5704   -7.0260    0.0000 C   0  0  0
   -2.3616   -8.0012    0.0000 N   0  0  0
   -3.8302   -8.3066    0.0000 C   0  0  0
   -6.0743   -6.8615    0.0000 C   0  0  0
   -6.9672   -8.0599    0.0000 O   0  0  0
  1  2  1
  2  3  1
  2  4  1
  2  5  1
  5  6  2
  5  7  1
  6  8  1
  6  9  1
  7 10  2
  8 11  1
  8 12  2
  9 13  1
 11 14  2
 13 15  1
 15 16  2
 15 17  1
 16 18  1
 17 19  2
 18 20  2
 21 18  1
 21 22  1
 21 23  1
 22 24  1
 24 25  2
 24 26  1
 25 27  1
 26 28  2
 26 29  1
 29 30  1
 10 12  1
 11 13  1
 19 20  1
 27 28  1
M  END
> <COMPOUND_NAMES>
Example 271 (+/-) (Page No: 480)

> <Reference>
WO2019148005

> <IC50_range_nM>
3001-10000

> <smiles>
CC(Cc1c(CO)c[nH]n1)c1cccc(c1)N1Cc2c(cccc2C(F)(F)F)C1=O

$$$$
C22H20F3N3O2
  MOLSOFT 03092310482D

 30 33  0  0  1  0  0  0  0  0999 V2000
    0.0000   -0.0000    0.0000 F   0  0  0
    1.1044    1.0104    0.0000 C   0  0  0
    2.0913   -0.0940    0.0000 F   0  0  0
    2.2088    2.0209    0.0000 F   0  0  0
    0.0940    2.1383    0.0000 C   0  0  0
   -1.3864    1.8329    0.0000 C   0  0  0
    0.5405    3.5717    0.0000 C   0  0  0
   -2.3968    2.9608    0.0000 C   0  0  0
   -2.1501    0.5405    0.0000 C   0  0  0
   -0.4700    4.6997    0.0000 C   0  0  0
   -3.7832    2.3616    0.0000 C   0  0  0
   -1.9504    4.3942    0.0000 C   0  0  0
   -3.6305    0.8694    0.0000 N   0  0  0
   -5.0991    3.1253    0.0000 O   0  0  0
   -4.7584   -0.1175    0.0000 C   0  0  0
   -4.4529   -1.5744    0.0000 C   0  0  0
   -6.1918    0.3525    0.0000 C   0  0  0
   -5.5808   -2.5613    0.0000 C   0  0  0
   -7.3197   -0.6345    0.0000 C   0  0  0
   -7.0142   -2.0913    0.0000 C   0  0  0
   -5.2754   -4.0182    0.0000 C   0  0  2
   -3.8655   -4.4647    0.0000 C   0  0  0
   -6.4033   -5.0051    0.0000 C   0  0  0
   -3.5600   -5.9216    0.0000 C   0  0  0
   -2.1971   -6.5208    0.0000 N   0  0  0
   -4.5704   -7.0260    0.0000 C   0  0  0
   -2.3616   -8.0012    0.0000 N   0  0  0
   -3.8302   -8.3066    0.0000 C   0  0  0
   -6.0743   -6.8615    0.0000 C   0  0  0
   -6.9672   -8.0599    0.0000 O   0  0  0
  1  2  1
  2  3  1
  2  4  1
  2  5  1
  5  6  2
  5  7  1
  6  8  1
  6  9  1
  7 10  2
  8 11  1
  8 12  2
  9 13  1
 11 14  2
 13 15  1
 15 16  2
 15 17  1
 16 18  1
 17 19  2
 18 20  2
 21 18  1
 21 22  1
 21 23  1  6  0
 22 24  1
 24 25  2
 24 26  1
 25 27  1
 26 28  2
 26 29  1
 29 30  1
 10 12  1
 11 13  1
 19 20  1
 27 28  1
M  END
> <COMPOUND_NAMES>
Example 271a (S) (Page No: 480)

> <Reference>
WO2019148005

> <IC50_range_nM>
>10000

> <smiles>
C[C@@H](Cc1c(CO)c[nH]n1)c1cccc(c1)N1Cc2c(cccc2C(F)(F)F)C1=O

$$$$
C20H17F3N4OS
  MOLSOFT 03092310482D

 29 32  0  0  1  0  0  0  0  0999 V2000
    0.0000   -0.0000    0.0000 S   0  0  0
    0.3055   -1.4571    0.0000 C   0  0  0
   -1.4336    0.4700    0.0000 C   0  0  2
    1.6686   -2.0563    0.0000 N   0  0  0
   -0.7050   -2.5616    0.0000 N   0  0  0
   -1.7626    1.9506    0.0000 C   0  0  0
   -2.5616   -0.5170    0.0000 C   0  0  0
    1.5041   -3.5369    0.0000 N   0  0  0
    0.0353   -3.8424    0.0000 C   0  0  0
   -2.2091   -2.3971    0.0000 C   0  0  0
   -0.6580    2.9611    0.0000 C   0  0  0
   -3.1961    2.4206    0.0000 C   0  0  0
   -0.9870    4.4417    0.0000 C   0  0  0
   -3.5251    3.9012    0.0000 C   0  0  0
    0.1175    5.4522    0.0000 N   0  0  0
   -2.4206    4.9117    0.0000 C   0  0  0
   -0.0470    6.9563    0.0000 C   0  0  0
    1.5746    5.1467    0.0000 C   0  0  0
   -1.3631    7.7201    0.0000 O   0  0  0
    1.3161    7.5791    0.0000 C   0  0  0
    2.3148    6.4628    0.0000 C   0  0  0
    1.7626    9.0126    0.0000 C   0  0  0
    3.7719    6.7918    0.0000 C   0  0  0
    3.2196    9.3416    0.0000 C   0  0  0
    4.2184    8.2253    0.0000 C   0  0  0
    4.7589    5.6872    0.0000 C   0  0  0
    3.6309    4.7002    0.0000 F   0  0  0
    5.7460    4.5827    0.0000 F   0  0  0
    5.8635    6.6978    0.0000 F   0  0  0
  1  2  1
  3  1  1  1  0
  2  4  2
  2  5  1
  3  6  1
  3  7  1
  4  8  1
  5  9  1
  5 10  1
  6 11  2
  6 12  1
 11 13  1
 12 14  2
 13 15  1
 13 16  2
 15 17  1
 15 18  1
 17 19  2
 17 20  1
 18 21  1
 20 22  1
 21 23  1
 22 24  2
 23 25  2
 23 26  1
 26 27  1
 26 28  1
 26 29  1
  8  9  2
 14 16  1
 20 21  2
 24 25  1
M  END
> <COMPOUND_NAMES>
Example 166a (S) (Page No: 423)

> <Reference>
WO2019148005

> <IC50_range_nM>
101-300

> <smiles>
C[C@@H](c1cccc(c1)N1Cc2c(cccc2C(F)(F)F)C1=O)Sc1nncn1C

$$$$
C20H17F3N4OS
  MOLSOFT 03092310482D

 29 32  0  0  1  0  0  0  0  0999 V2000
    0.0000   -0.0000    0.0000 S   0  0  0
    0.3055   -1.4571    0.0000 C   0  0  0
   -1.4336    0.4700    0.0000 C   0  0  1
    1.6686   -2.0563    0.0000 N   0  0  0
   -0.7050   -2.5616    0.0000 N   0  0  0
   -1.7626    1.9506    0.0000 C   0  0  0
   -2.5616   -0.5170    0.0000 C   0  0  0
    1.5041   -3.5369    0.0000 N   0  0  0
    0.0353   -3.8424    0.0000 C   0  0  0
   -2.2091   -2.3971    0.0000 C   0  0  0
   -0.6580    2.9611    0.0000 C   0  0  0
   -3.1961    2.4206    0.0000 C   0  0  0
   -0.9870    4.4417    0.0000 C   0  0  0
   -3.5251    3.9012    0.0000 C   0  0  0
    0.1175    5.4522    0.0000 N   0  0  0
   -2.4206    4.9117    0.0000 C   0  0  0
   -0.0470    6.9563    0.0000 C   0  0  0
    1.5746    5.1467    0.0000 C   0  0  0
   -1.3631    7.7201    0.0000 O   0  0  0
    1.3161    7.5791    0.0000 C   0  0  0
    2.3148    6.4628    0.0000 C   0  0  0
    1.7626    9.0126    0.0000 C   0  0  0
    3.7719    6.7918    0.0000 C   0  0  0
    3.2196    9.3416    0.0000 C   0  0  0
    4.2184    8.2253    0.0000 C   0  0  0
    4.7589    5.6872    0.0000 C   0  0  0
    3.6309    4.7002    0.0000 F   0  0  0
    5.7460    4.5827    0.0000 F   0  0  0
    5.8635    6.6978    0.0000 F   0  0  0
  1  2  1
  3  1  1  6  0
  2  4  2
  2  5  1
  3  6  1
  3  7  1
  4  8  1
  5  9  1
  5 10  1
  6 11  2
  6 12  1
 11 13  1
 12 14  2
 13 15  1
 13 16  2
 15 17  1
 15 18  1
 17 19  2
 17 20  1
 18 21  1
 20 22  1
 21 23  1
 22 24  2
 23 25  2
 23 26  1
 26 27  1
 26 28  1
 26 29  1
  8  9  2
 14 16  1
 20 21  2
 24 25  1
M  END
> <COMPOUND_NAMES>
Example 166b (R) (Page No: 424)

> <Reference>
WO2019148005

> <IC50_range_nM>
1001-3000

> <smiles>
C[C@H](c1cccc(c1)N1Cc2c(cccc2C(F)(F)F)C1=O)Sc1nncn1C

$$$$
C20H16F4N4OS
  MOLSOFT 03092310482D

 30 33  0  0  1  0  0  0  0  0999 V2000
    0.0000   -0.0000    0.0000 S   0  0  0
    0.3055   -1.4568    0.0000 C   0  0  0
   -1.4333    0.4699    0.0000 C   0  0  2
    1.6683   -2.0560    0.0000 N   0  0  0
   -0.7049   -2.5612    0.0000 N   0  0  0
   -1.7623    1.9502    0.0000 C   0  0  0
   -2.5612   -0.5169    0.0000 C   0  0  0
    1.5038   -3.5363    0.0000 N   0  0  0
    0.0352   -3.8417    0.0000 C   0  0  0
   -2.2087   -2.3967    0.0000 C   0  0  0
   -3.1956    2.4202    0.0000 C   0  0  0
   -0.6579    2.9606    0.0000 C   0  0  0
   -3.5245    3.9005    0.0000 C   0  0  0
   -0.9869    4.4409    0.0000 C   0  0  0
   -4.9578    4.3704    0.0000 F   0  0  0
   -2.4202    4.9108    0.0000 C   0  0  0
    0.1175    5.4513    0.0000 N   0  0  0
   -0.0470    6.9551    0.0000 C   0  0  0
    1.5743    5.1458    0.0000 C   0  0  0
   -1.3628    7.7187    0.0000 O   0  0  0
    1.3158    7.5777    0.0000 C   0  0  0
    2.3144    6.4616    0.0000 C   0  0  0
    1.7623    9.0110    0.0000 C   0  0  0
    3.7712    6.7906    0.0000 C   0  0  0
    3.2191    9.3400    0.0000 C   0  0  0
    4.2177    8.2239    0.0000 C   0  0  0
    4.7581    5.6862    0.0000 C   0  0  0
    3.6303    4.6994    0.0000 F   0  0  0
    5.7450    4.5819    0.0000 F   0  0  0
    5.8625    6.6966    0.0000 F   0  0  0
  1  2  1
  3  1  1  1  0
  2  4  2
  2  5  1
  3  6  1
  3  7  1
  4  8  1
  5  9  1
  5 10  1
  6 11  2
  6 12  1
 11 13  1
 12 14  2
 13 15  1
 13 16  2
 14 17  1
 17 18  1
 17 19  1
 18 20  2
 18 21  1
 19 22  1
 21 23  1
 22 24  1
 23 25  2
 24 26  2
 24 27  1
 27 28  1
 27 29  1
 27 30  1
  8  9  2
 14 16  1
 21 22  2
 25 26  1
M  END
> <COMPOUND_NAMES>
Example 168a (S) (Page No: 426)

> <Reference>
WO2019148005

> <IC50_range_nM>
101-300

> <smiles>
C[C@@H](c1cc(cc(c1)F)N1Cc2c(cccc2C(F)(F)F)C1=O)Sc1nncn1C

$$$$
C20H16F4N4OS
  MOLSOFT 03092310482D

 30 33  0  0  0  0  0  0  0  0999 V2000
    0.0000   -0.0000    0.0000 S   0  0  0
    0.3055   -1.4568    0.0000 C   0  0  0
   -1.4333    0.4699    0.0000 C   0  0  3
    1.6683   -2.0560    0.0000 N   0  0  0
   -0.7049   -2.5612    0.0000 N   0  0  0
   -1.7623    1.9502    0.0000 C   0  0  0
   -2.5612   -0.5169    0.0000 C   0  0  0
    1.5038   -3.5363    0.0000 N   0  0  0
    0.0352   -3.8417    0.0000 C   0  0  0
   -2.2087   -2.3967    0.0000 C   0  0  0
   -3.1956    2.4202    0.0000 C   0  0  0
   -0.6579    2.9606    0.0000 C   0  0  0
   -3.5245    3.9005    0.0000 C   0  0  0
   -0.9869    4.4409    0.0000 C   0  0  0
   -4.9578    4.3704    0.0000 F   0  0  0
   -2.4202    4.9108    0.0000 C   0  0  0
    0.1175    5.4513    0.0000 N   0  0  0
   -0.0470    6.9551    0.0000 C   0  0  0
    1.5743    5.1458    0.0000 C   0  0  0
   -1.3628    7.7187    0.0000 O   0  0  0
    1.3158    7.5777    0.0000 C   0  0  0
    2.3144    6.4616    0.0000 C   0  0  0
    1.7623    9.0110    0.0000 C   0  0  0
    3.7712    6.7906    0.0000 C   0  0  0
    3.2191    9.3400    0.0000 C   0  0  0
    4.2177    8.2239    0.0000 C   0  0  0
    4.7581    5.6862    0.0000 C   0  0  0
    3.6303    4.6994    0.0000 F   0  0  0
    5.7450    4.5819    0.0000 F   0  0  0
    5.8625    6.6966    0.0000 F   0  0  0
  1  2  1
  3  1  1
  2  4  2
  2  5  1
  3  6  1
  3  7  1
  4  8  1
  5  9  1
  5 10  1
  6 11  2
  6 12  1
 11 13  1
 12 14  2
 13 15  1
 13 16  2
 14 17  1
 17 18  1
 17 19  1
 18 20  2
 18 21  1
 19 22  1
 21 23  1
 22 24  1
 23 25  2
 24 26  2
 24 27  1
 27 28  1
 27 29  1
 27 30  1
  8  9  2
 14 16  1
 21 22  2
 25 26  1
M  END
> <COMPOUND_NAMES>
Example 168 (+/-) (Page No: 425)

> <Reference>
WO2019148005

> <IC50_range_nM>
301-1000

> <smiles>
CC(c1cc(cc(c1)F)N1Cc2c(cccc2C(F)(F)F)C1=O)Sc1nncn1C

$$$$
C20H16F4N4OS
  MOLSOFT 03092310482D

 30 33  0  0  1  0  0  0  0  0999 V2000
    0.0000   -0.0000    0.0000 S   0  0  0
    0.3055   -1.4568    0.0000 C   0  0  0
   -1.4333    0.4699    0.0000 C   0  0  1
    1.6683   -2.0560    0.0000 N   0  0  0
   -0.7049   -2.5612    0.0000 N   0  0  0
   -1.7623    1.9502    0.0000 C   0  0  0
   -2.5612   -0.5169    0.0000 C   0  0  0
    1.5038   -3.5363    0.0000 N   0  0  0
    0.0352   -3.8417    0.0000 C   0  0  0
   -2.2087   -2.3967    0.0000 C   0  0  0
   -3.1956    2.4202    0.0000 C   0  0  0
   -0.6579    2.9606    0.0000 C   0  0  0
   -3.5245    3.9005    0.0000 C   0  0  0
   -0.9869    4.4409    0.0000 C   0  0  0
   -4.9578    4.3704    0.0000 F   0  0  0
   -2.4202    4.9108    0.0000 C   0  0  0
    0.1175    5.4513    0.0000 N   0  0  0
   -0.0470    6.9551    0.0000 C   0  0  0
    1.5743    5.1458    0.0000 C   0  0  0
   -1.3628    7.7187    0.0000 O   0  0  0
    1.3158    7.5777    0.0000 C   0  0  0
    2.3144    6.4616    0.0000 C   0  0  0
    1.7623    9.0110    0.0000 C   0  0  0
    3.7712    6.7906    0.0000 C   0  0  0
    3.2191    9.3400    0.0000 C   0  0  0
    4.2177    8.2239    0.0000 C   0  0  0
    4.7581    5.6862    0.0000 C   0  0  0
    3.6303    4.6994    0.0000 F   0  0  0
    5.7450    4.5819    0.0000 F   0  0  0
    5.8625    6.6966    0.0000 F   0  0  0
  1  2  1
  3  1  1  6  0
  2  4  2
  2  5  1
  3  6  1
  3  7  1
  4  8  1
  5  9  1
  5 10  1
  6 11  2
  6 12  1
 11 13  1
 12 14  2
 13 15  1
 13 16  2
 14 17  1
 17 18  1
 17 19  1
 18 20  2
 18 21  1
 19 22  1
 21 23  1
 22 24  1
 23 25  2
 24 26  2
 24 27  1
 27 28  1
 27 29  1
 27 30  1
  8  9  2
 14 16  1
 21 22  2
 25 26  1
M  END
> <COMPOUND_NAMES>
Example 168b (R) (Page No: 426)

> <Reference>
WO2019148005

> <IC50_range_nM>
1001-3000

> <smiles>
C[C@H](c1cc(cc(c1)F)N1Cc2c(cccc2C(F)(F)F)C1=O)Sc1nncn1C

$$$$
C20H16F4N4OS
  MOLSOFT 03092310482D

 30 33  0  0  1  0  0  0  0  0999 V2000
    0.0000   -0.0000    0.0000 S   0  0  0
    0.3054   -1.4566    0.0000 C   0  0  0
   -1.4331    0.4699    0.0000 C   0  0  2
    1.6680   -2.0556    0.0000 N   0  0  0
   -0.7048   -2.5607    0.0000 N   0  0  0
   -1.7620    1.9499    0.0000 C   0  0  0
   -2.5607   -0.5168    0.0000 C   0  0  0
    1.5036   -3.5357    0.0000 N   0  0  0
    0.0352   -3.8411    0.0000 C   0  0  0
   -2.2083   -2.3963    0.0000 C   0  0  0
   -0.6578    2.9601    0.0000 C   0  0  0
   -3.1951    2.4198    0.0000 C   0  0  0
   -0.9867    4.4402    0.0000 C   0  0  0
   -3.5240    3.8998    0.0000 C   0  0  0
    0.1175    5.4504    0.0000 N   0  0  0
   -2.4198    4.9100    0.0000 C   0  0  0
   -0.0470    6.9539    0.0000 C   0  0  0
    1.5740    5.1450    0.0000 C   0  0  0
   -2.7487    6.3901    0.0000 F   0  0  0
   -1.3626    7.7175    0.0000 O   0  0  0
    1.3156    7.5765    0.0000 C   0  0  0
    2.3141    6.4606    0.0000 C   0  0  0
    1.7620    9.0096    0.0000 C   0  0  0
    3.7706    6.7895    0.0000 C   0  0  0
    3.2185    9.3385    0.0000 C   0  0  0
    4.2170    8.2226    0.0000 C   0  0  0
    4.7573    5.6853    0.0000 C   0  0  0
    3.6297    4.6986    0.0000 F   0  0  0
    5.7441    4.5811    0.0000 F   0  0  0
    5.8615    6.6955    0.0000 F   0  0  0
  1  2  1
  3  1  1  1  0
  2  4  2
  2  5  1
  3  6  1
  3  7  1
  4  8  1
  5  9  1
  5 10  1
  6 11  2
  6 12  1
 11 13  1
 12 14  2
 13 15  1
 13 16  2
 15 17  1
 15 18  1
 16 19  1
 17 20  2
 17 21  1
 18 22  1
 21 23  1
 22 24  1
 23 25  2
 24 26  2
 24 27  1
 27 28  1
 27 29  1
 27 30  1
  8  9  2
 14 16  1
 21 22  2
 25 26  1
M  END
> <COMPOUND_NAMES>
Example 169 (S) (Page No: 426)

> <Reference>
WO2019148005

> <IC50_range_nM>
1001-3000

> <smiles>
C[C@@H](c1ccc(c(c1)N1Cc2c(cccc2C(F)(F)F)C1=O)F)Sc1nncn1C

$$$$
C20H16F4N4OS
  MOLSOFT 03092310482D

 30 33  0  0  1  0  0  0  0  0999 V2000
    0.0000   -0.0000    0.0000 S   0  0  0
    0.3054   -1.4566    0.0000 C   0  0  0
   -1.4331    0.4699    0.0000 C   0  0  1
    1.6680   -2.0556    0.0000 N   0  0  0
   -0.7048   -2.5607    0.0000 N   0  0  0
   -1.7620    1.9499    0.0000 C   0  0  0
   -2.5607   -0.5168    0.0000 C   0  0  0
    1.5036   -3.5357    0.0000 N   0  0  0
    0.0352   -3.8411    0.0000 C   0  0  0
   -2.2083   -2.3963    0.0000 C   0  0  0
   -0.6578    2.9601    0.0000 C   0  0  0
   -3.1951    2.4198    0.0000 C   0  0  0
   -0.9867    4.4402    0.0000 C   0  0  0
   -3.5240    3.8998    0.0000 C   0  0  0
    0.1175    5.4504    0.0000 N   0  0  0
   -2.4198    4.9100    0.0000 C   0  0  0
   -0.0470    6.9539    0.0000 C   0  0  0
    1.5740    5.1450    0.0000 C   0  0  0
   -2.7487    6.3901    0.0000 F   0  0  0
   -1.3626    7.7175    0.0000 O   0  0  0
    1.3156    7.5765    0.0000 C   0  0  0
    2.3141    6.4606    0.0000 C   0  0  0
    1.7620    9.0096    0.0000 C   0  0  0
    3.7706    6.7895    0.0000 C   0  0  0
    3.2185    9.3385    0.0000 C   0  0  0
    4.2170    8.2226    0.0000 C   0  0  0
    4.7573    5.6853    0.0000 C   0  0  0
    3.6297    4.6986    0.0000 F   0  0  0
    5.7441    4.5811    0.0000 F   0  0  0
    5.8615    6.6955    0.0000 F   0  0  0
  1  2  1
  3  1  1  6  0
  2  4  2
  2  5  1
  3  6  1
  3  7  1
  4  8  1
  5  9  1
  5 10  1
  6 11  2
  6 12  1
 11 13  1
 12 14  2
 13 15  1
 13 16  2
 15 17  1
 15 18  1
 16 19  1
 17 20  2
 17 21  1
 18 22  1
 21 23  1
 22 24  1
 23 25  2
 24 26  2
 24 27  1
 27 28  1
 27 29  1
 27 30  1
  8  9  2
 14 16  1
 21 22  2
 25 26  1
M  END
> <COMPOUND_NAMES>
Example 170 (R) (Page No: 427)

> <Reference>
WO2019148005

> <IC50_range_nM>
>10000

> <smiles>
C[C@H](c1ccc(c(c1)N1Cc2c(cccc2C(F)(F)F)C1=O)F)Sc1nncn1C

$$$$
C19H17ClN4OS
  MOLSOFT 03092310482D

 26 29  0  0  1  0  0  0  0  0999 V2000
    0.0000   -0.0000    0.0000 Cl  0  0  0
   -1.4805   -0.3055    0.0000 C   0  0  0
   -1.9505   -1.7155    0.0000 C   0  0  0
   -2.4910    0.8225    0.0000 C   0  0  0
   -3.4309   -2.0210    0.0000 C   0  0  0
   -3.9714    0.5170    0.0000 C   0  0  0
   -4.4414   -0.8930    0.0000 C   0  0  0
   -4.1947   -3.3134    0.0000 C   0  0  0
   -5.8279   -1.4922    0.0000 C   0  0  0
   -5.6752   -2.9844    0.0000 N   0  0  0
   -7.1439   -0.7285    0.0000 O   0  0  0
   -6.8031   -3.9714    0.0000 C   0  0  0
   -6.4976   -5.4284    0.0000 C   0  0  0
   -8.2366   -3.5014    0.0000 C   0  0  0
   -7.6256   -6.4154    0.0000 C   0  0  0
   -9.3646   -4.4884    0.0000 C   0  0  0
   -9.0591   -5.9454    0.0000 C   0  0  0
   -7.3201   -7.8724    0.0000 C   0  0  1
   -5.9101   -8.3189    0.0000 S   0  0  0
   -8.4481   -8.8594    0.0000 C   0  0  0
   -5.6047   -9.7758    0.0000 C   0  0  0
   -4.2417  -10.3751    0.0000 N   0  0  0
   -6.6151  -10.8803    0.0000 N   0  0  0
   -4.4062  -11.8555    0.0000 N   0  0  0
   -5.8749  -12.1610    0.0000 C   0  0  0
   -8.1191  -10.7158    0.0000 C   0  0  0
  1  2  1
  2  3  2
  2  4  1
  3  5  1
  4  6  2
  5  7  2
  5  8  1
  7  9  1
  8 10  1
  9 11  2
 10 12  1
 12 13  2
 12 14  1
 13 15  1
 14 16  2
 15 17  2
 18 15  1
 18 19  1  1  0
 18 20  1
 19 21  1
 21 22  2
 21 23  1
 22 24  1
 23 25  1
 23 26  1
  6  7  1
  9 10  1
 16 17  1
 24 25  2
M  END
> <COMPOUND_NAMES>
Example 164 (S) (Page No: 422)

> <Reference>
WO2019148005

> <IC50_range_nM>
301-1000

> <smiles>
C[C@@H](c1cccc(c1)N1Cc2cc(ccc2C1=O)[Cl])Sc1nncn1C

$$$$
C19H17ClN4OS
  MOLSOFT 03092310482D

 26 29  0  0  0  0  0  0  0  0999 V2000
    0.0000   -0.0000    0.0000 Cl  0  0  0
   -0.4713   -1.4138    0.0000 C   0  0  0
   -1.9558   -1.7202    0.0000 C   0  0  0
    0.5184   -2.5213    0.0000 C   0  0  0
   -2.4271   -3.1340    0.0000 C   0  0  0
    0.0471   -3.9352    0.0000 C   0  0  0
   -3.8173   -3.7349    0.0000 C   0  0  0
   -1.4374   -4.2415    0.0000 C   0  0  0
   -5.1369   -2.9690    0.0000 O   0  0  0
   -3.6760   -5.2194    0.0000 N   0  0  0
   -2.2032   -5.5375    0.0000 C   0  0  0
   -4.8070   -6.2091    0.0000 C   0  0  0
   -4.5007   -7.6700    0.0000 C   0  0  0
   -6.2444   -5.7378    0.0000 C   0  0  0
   -5.6318   -8.6597    0.0000 C   0  0  0
   -7.3755   -6.7275    0.0000 C   0  0  0
   -7.0692   -8.1884    0.0000 C   0  0  0
   -5.3254  -10.1207    0.0000 C   0  0  3
   -3.9116  -10.5684    0.0000 S   0  0  0
   -6.4565  -11.1104    0.0000 C   0  0  0
   -3.6053  -12.0294    0.0000 C   0  0  0
   -2.2386  -12.6302    0.0000 N   0  0  0
   -4.6185  -13.1369    0.0000 N   0  0  0
   -2.4035  -14.1148    0.0000 N   0  0  0
   -3.8763  -14.4211    0.0000 C   0  0  0
   -6.1266  -12.9719    0.0000 C   0  0  0
  1  2  1
  2  3  2
  2  4  1
  3  5  1
  4  6  2
  5  7  1
  5  8  2
  7  9  2
  7 10  1
  8 11  1
 10 12  1
 12 13  2
 12 14  1
 13 15  1
 14 16  2
 15 17  2
 18 15  1
 18 19  1
 18 20  1
 19 21  1
 21 22  2
 21 23  1
 22 24  1
 23 25  1
 23 26  1
  6  8  1
 10 11  1
 16 17  1
 24 25  2
M  END
> <COMPOUND_NAMES>
Example 163 (+/-) (Page No: 421)

> <Reference>
WO2019148005

> <IC50_range_nM>
3001-10000

> <smiles>
CC(c1cccc(c1)N1Cc2ccc(cc2C1=O)[Cl])Sc1nncn1C

$$$$
C22H24N4O2S
  MOLSOFT 03092310482D

 29 32  0  0  0  0  0  0  0  0999 V2000
    0.0000   -0.0000    0.0000 S   0  0  0
    0.3053   -1.4561    0.0000 C   0  0  0
   -1.4326    0.4697    0.0000 C   0  0  3
    1.6675   -2.0550    0.0000 N   0  0  0
   -0.7046   -2.5599    0.0000 N   0  0  0
   -1.7614    1.9493    0.0000 C   0  0  0
   -2.5599   -0.5167    0.0000 C   0  0  0
    1.5031   -3.5345    0.0000 N   0  0  0
    0.0352   -3.8398    0.0000 C   0  0  0
   -2.2076   -2.3955    0.0000 C   0  0  0
   -0.6576    2.9591    0.0000 C   0  0  0
   -3.1940    2.4190    0.0000 C   0  0  0
   -0.9864    4.4387    0.0000 C   0  0  0
   -3.5228    3.8986    0.0000 C   0  0  0
    0.1174    5.4486    0.0000 N   0  0  0
   -2.4190    4.9084    0.0000 C   0  0  0
   -0.0470    6.9516    0.0000 C   0  0  0
    1.5735    5.1433    0.0000 C   0  0  0
   -1.3621    7.7149    0.0000 O   0  0  0
    1.3152    7.5740    0.0000 C   0  0  0
    2.3133    6.4584    0.0000 C   0  0  0
    1.7614    9.0066    0.0000 C   0  0  0
    3.7694    6.7872    0.0000 C   0  0  0
    3.2175    9.3354    0.0000 C   0  0  0
    4.2156    8.2198    0.0000 C   0  0  0
    3.6637   10.7680    0.0000 C   0  0  0
    2.2311   11.2377    0.0000 O   0  0  0
    5.0728   10.3218    0.0000 C   0  0  0
    4.1099   12.2006    0.0000 C   0  0  0
  1  2  1
  3  1  1
  2  4  2
  2  5  1
  3  6  1
  3  7  1
  4  8  1
  5  9  1
  5 10  1
  6 11  2
  6 12  1
 11 13  1
 12 14  2
 13 15  1
 13 16  2
 15 17  1
 15 18  1
 17 19  2
 17 20  1
 18 21  1
 20 22  1
 21 23  1
 22 24  2
 23 25  2
 24 26  1
 26 27  1
 26 28  1
 26 29  1
  8  9  2
 14 16  1
 20 21  2
 24 25  1
M  END
> <COMPOUND_NAMES>
Example 165 (+/-) (Page No: 423)

> <Reference>
WO2019148005

> <IC50_range_nM>
3001-10000

> <smiles>
CC(c1cccc(c1)N1Cc2ccc(cc2C1=O)C(C)(C)O)Sc1nncn1C

$$$$
C19H16F3N5OS
  MOLSOFT 03092310482D

 29 32  0  0  1  0  0  0  0  0999 V2000
    0.0000   -0.0000    0.0000 S   0  0  0
    0.3055   -1.4571    0.0000 C   0  0  0
   -1.4336    0.4700    0.0000 C   0  0  2
    1.6686   -2.0563    0.0000 N   0  0  0
   -0.7050   -2.5616    0.0000 N   0  0  0
   -1.7626    1.9506    0.0000 C   0  0  0
   -2.5616   -0.5170    0.0000 C   0  0  0
    1.5041   -3.5369    0.0000 N   0  0  0
    0.0353   -3.8424    0.0000 C   0  0  0
   -2.2091   -2.3971    0.0000 C   0  0  0
   -0.6580    2.9611    0.0000 C   0  0  0
   -3.1961    2.4206    0.0000 C   0  0  0
   -0.9870    4.4417    0.0000 C   0  0  0
   -3.5251    3.9012    0.0000 C   0  0  0
   -2.4206    4.9117    0.0000 N   0  0  0
    0.1175    5.4522    0.0000 N   0  0  0
   -0.0470    6.9563    0.0000 C   0  0  0
    1.5746    5.1467    0.0000 C   0  0  0
   -1.3631    7.7201    0.0000 O   0  0  0
    1.3161    7.5791    0.0000 C   0  0  0
    2.3148    6.4628    0.0000 C   0  0  0
    1.7626    9.0126    0.0000 C   0  0  0
    3.7719    6.7918    0.0000 C   0  0  0
    3.2196    9.3416    0.0000 C   0  0  0
    4.2184    8.2253    0.0000 C   0  0  0
    4.7589    5.6872    0.0000 C   0  0  0
    3.6309    4.7002    0.0000 F   0  0  0
    5.7460    4.5827    0.0000 F   0  0  0
    5.8635    6.6978    0.0000 F   0  0  0
  1  2  1
  3  1  1  1  0
  2  4  2
  2  5  1
  3  6  1
  3  7  1
  4  8  1
  5  9  1
  5 10  1
  6 11  2
  6 12  1
 11 13  1
 12 14  2
 13 15  2
 13 16  1
 16 17  1
 16 18  1
 17 19  2
 17 20  1
 18 21  1
 20 22  1
 21 23  1
 22 24  2
 23 25  2
 23 26  1
 26 27  1
 26 28  1
 26 29  1
  8  9  2
 14 15  1
 20 21  2
 24 25  1
M  END
> <COMPOUND_NAMES>
Example 172a (S) (Page No: 427)

> <Reference>
WO2019148005

> <IC50_range_nM>
301-1000

> <smiles>
C[C@@H](c1ccnc(c1)N1Cc2c(cccc2C(F)(F)F)C1=O)Sc1nncn1C

$$$$
C19H16F3N5OS
  MOLSOFT 03092310482D

 29 32  0  0  1  0  0  0  0  0999 V2000
    0.0000   -0.0000    0.0000 S   0  0  0
    0.3055   -1.4571    0.0000 C   0  0  0
   -1.4336    0.4700    0.0000 C   0  0  1
    1.6686   -2.0563    0.0000 N   0  0  0
   -0.7050   -2.5616    0.0000 N   0  0  0
   -1.7626    1.9506    0.0000 C   0  0  0
   -2.5616   -0.5170    0.0000 C   0  0  0
    1.5041   -3.5369    0.0000 N   0  0  0
    0.0353   -3.8424    0.0000 C   0  0  0
   -2.2091   -2.3971    0.0000 C   0  0  0
   -0.6580    2.9611    0.0000 C   0  0  0
   -3.1961    2.4206    0.0000 C   0  0  0
   -0.9870    4.4417    0.0000 C   0  0  0
   -3.5251    3.9012    0.0000 C   0  0  0
   -2.4206    4.9117    0.0000 N   0  0  0
    0.1175    5.4522    0.0000 N   0  0  0
   -0.0470    6.9563    0.0000 C   0  0  0
    1.5746    5.1467    0.0000 C   0  0  0
   -1.3631    7.7201    0.0000 O   0  0  0
    1.3161    7.5791    0.0000 C   0  0  0
    2.3148    6.4628    0.0000 C   0  0  0
    1.7626    9.0126    0.0000 C   0  0  0
    3.7719    6.7918    0.0000 C   0  0  0
    3.2196    9.3416    0.0000 C   0  0  0
    4.2184    8.2253    0.0000 C   0  0  0
    4.7589    5.6872    0.0000 C   0  0  0
    3.6309    4.7002    0.0000 F   0  0  0
    5.7460    4.5827    0.0000 F   0  0  0
    5.8635    6.6978    0.0000 F   0  0  0
  1  2  1
  3  1  1  6  0
  2  4  2
  2  5  1
  3  6  1
  3  7  1
  4  8  1
  5  9  1
  5 10  1
  6 11  2
  6 12  1
 11 13  1
 12 14  2
 13 15  2
 13 16  1
 16 17  1
 16 18  1
 17 19  2
 17 20  1
 18 21  1
 20 22  1
 21 23  1
 22 24  2
 23 25  2
 23 26  1
 26 27  1
 26 28  1
 26 29  1
  8  9  2
 14 15  1
 20 21  2
 24 25  1
M  END
> <COMPOUND_NAMES>
Example 172b (R) (Page No: 427)

> <Reference>
WO2019148005

> <IC50_range_nM>
3001-10000

> <smiles>
C[C@H](c1ccnc(c1)N1Cc2c(cccc2C(F)(F)F)C1=O)Sc1nncn1C

$$$$
C19H17F3N6OS
  MOLSOFT 03092310482D

 30 33  0  0  0  0  0  0  0  0999 V2000
    0.0000   -0.0000    0.0000 S   0  0  0
    0.3055   -1.4568    0.0000 C   0  0  0
   -1.4333    0.4699    0.0000 C   0  0  3
    1.6683   -2.0560    0.0000 N   0  0  0
   -0.7049   -2.5612    0.0000 N   0  0  0
   -1.7623    1.9502    0.0000 C   0  0  0
   -2.5612   -0.5169    0.0000 C   0  0  0
    1.5038   -3.5363    0.0000 N   0  0  0
    0.0352   -3.8417    0.0000 C   0  0  0
   -2.2087   -2.3967    0.0000 C   0  0  0
   -0.6579    2.9606    0.0000 C   0  0  0
   -3.1956    2.4202    0.0000 C   0  0  0
   -0.9869    4.4409    0.0000 C   0  0  0
   -3.5245    3.9005    0.0000 C   0  0  0
   -2.4202    4.9108    0.0000 N   0  0  0
    0.1175    5.4513    0.0000 N   0  0  0
   -4.9578    4.3704    0.0000 N   0  0  0
   -0.0470    6.9551    0.0000 C   0  0  0
    1.5743    5.1458    0.0000 C   0  0  0
   -1.3628    7.7187    0.0000 O   0  0  0
    1.3158    7.5777    0.0000 C   0  0  0
    2.3144    6.4616    0.0000 C   0  0  0
    1.7623    9.0110    0.0000 C   0  0  0
    3.7712    6.7906    0.0000 C   0  0  0
    3.2191    9.3400    0.0000 C   0  0  0
    4.2177    8.2239    0.0000 C   0  0  0
    4.7581    5.6862    0.0000 C   0  0  0
    3.6303    4.6994    0.0000 F   0  0  0
    5.7450    4.5819    0.0000 F   0  0  0
    5.8625    6.6966    0.0000 F   0  0  0
  1  2  1
  3  1  1
  2  4  2
  2  5  1
  3  6  1
  3  7  1
  4  8  1
  5  9  1
  5 10  1
  6 11  2
  6 12  1
 11 13  1
 12 14  2
 13 15  2
 13 16  1
 14 17  1
 16 18  1
 16 19  1
 18 20  2
 18 21  1
 19 22  1
 21 23  1
 22 24  1
 23 25  2
 24 26  2
 24 27  1
 27 28  1
 27 29  1
 27 30  1
  8  9  2
 14 15  1
 21 22  2
 25 26  1
M  END
> <COMPOUND_NAMES>
Example 175 (+/-) (Page No: 429)

> <Reference>
WO2019148005

> <IC50_range_nM>
3001-10000

> <smiles>
CC(c1cc(N)nc(c1)N1Cc2c(cccc2C(F)(F)F)C1=O)Sc1nncn1C

$$$$
C21H21F3N6OS
  MOLSOFT 03092310482D

 32 35  0  0  0  0  0  0  0  0999 V2000
    0.0000   -0.0000    0.0000 S   0  0  0
    0.3055   -1.4571    0.0000 C   0  0  0
    1.1046    1.0106    0.0000 C   0  0  3
    1.6687   -2.0564    0.0000 N   0  0  0
   -0.7051   -2.5617    0.0000 N   0  0  0
    0.7756    2.4912    0.0000 C   0  0  0
    2.5147    0.5641    0.0000 C   0  0  0
    1.5041   -3.5371    0.0000 N   0  0  0
    0.0353   -3.8543    0.0000 C   0  0  0
   -2.2092   -2.3972    0.0000 C   0  0  0
    1.8802    3.5018    0.0000 C   0  0  0
   -0.6581    2.9613    0.0000 C   0  0  0
    1.5511    4.9825    0.0000 C   0  0  0
   -0.9871    4.4419    0.0000 C   0  0  0
    0.1175    5.4525    0.0000 N   0  0  0
    2.6557    5.9930    0.0000 N   0  0  0
   -2.4207    4.9119    0.0000 N   0  0  0
    2.4912    7.4972    0.0000 C   0  0  0
    4.1129    5.6875    0.0000 C   0  0  0
   -3.5488    3.9249    0.0000 C   0  0  0
    1.1751    8.2610    0.0000 O   0  0  0
    3.8543    8.1200    0.0000 C   0  0  0
    4.8532    7.0036    0.0000 C   0  0  0
   -4.9825    4.3949    0.0000 C   0  0  0
    4.3009    9.5536    0.0000 C   0  0  0
    6.3103    7.3327    0.0000 C   0  0  0
    5.7580    9.8826    0.0000 C   0  0  0
    6.7569    8.7663    0.0000 C   0  0  0
    7.2974    6.2281    0.0000 C   0  0  0
    6.1693    5.2410    0.0000 F   0  0  0
    8.2845    5.1235    0.0000 F   0  0  0
    8.4020    7.2387    0.0000 F   0  0  0
  1  2  1
  3  1  1
  2  4  2
  2  5  1
  3  6  1
  3  7  1
  4  8  1
  5  9  1
  5 10  1
  6 11  2
  6 12  1
 11 13  1
 12 14  2
 13 15  2
 13 16  1
 14 17  1
 16 18  1
 16 19  1
 17 20  1
 18 21  2
 18 22  1
 19 23  1
 20 24  1
 22 25  1
 23 26  1
 25 27  2
 26 28  2
 26 29  1
 29 30  1
 29 31  1
 29 32  1
  8  9  2
 14 15  1
 22 23  2
 27 28  1
M  END
> <COMPOUND_NAMES>
Example 178 (+/-) (Page No: 431)

> <Reference>
WO2019148005

> <IC50_range_nM>
301-1000

> <smiles>
CCNc1cc(cc(n1)N1Cc2c(cccc2C(F)(F)F)C1=O)C(C)Sc1nncn1C

$$$$
C20H19F3N6OS
  MOLSOFT 03092310482D

 31 34  0  0  0  0  0  0  0  0999 V2000
    0.0000   -0.0000    0.0000 S   0  0  0
    0.3056   -1.4574    0.0000 C   0  0  0
    1.1048    1.0108    0.0000 C   0  0  3
    1.6689   -2.0568    0.0000 N   0  0  0
   -0.7052   -2.5622    0.0000 N   0  0  0
    0.7757    2.4917    0.0000 C   0  0  0
    2.5152    0.5641    0.0000 C   0  0  0
    1.5044   -3.5377    0.0000 N   0  0  0
    0.0353   -3.8550    0.0000 C   0  0  0
   -2.2096   -2.3976    0.0000 C   0  0  0
    1.8805    3.5024    0.0000 C   0  0  0
   -0.6582    2.9618    0.0000 C   0  0  0
    1.5514    4.9833    0.0000 C   0  0  0
   -0.9873    4.4427    0.0000 C   0  0  0
    0.1175    5.4534    0.0000 N   0  0  0
    2.6562    5.9941    0.0000 N   0  0  0
   -2.4211    4.9128    0.0000 N   0  0  0
    2.4917    7.4985    0.0000 C   0  0  0
    4.1136    5.6885    0.0000 C   0  0  0
   -3.5494    3.9255    0.0000 C   0  0  0
    1.1753    8.2624    0.0000 O   0  0  0
    3.8550    8.1214    0.0000 C   0  0  0
    4.8540    7.0048    0.0000 C   0  0  0
    4.3016    9.5552    0.0000 C   0  0  0
    6.3114    7.3339    0.0000 C   0  0  0
    5.7590    9.8843    0.0000 C   0  0  0
    6.7580    8.7678    0.0000 C   0  0  0
    7.2987    6.2291    0.0000 C   0  0  0
    6.1704    5.2419    0.0000 F   0  0  0
    8.2859    5.1243    0.0000 F   0  0  0
    8.4034    7.2399    0.0000 F   0  0  0
  1  2  1
  3  1  1
  2  4  2
  2  5  1
  3  6  1
  3  7  1
  4  8  1
  5  9  1
  5 10  1
  6 11  2
  6 12  1
 11 13  1
 12 14  2
 13 15  2
 13 16  1
 14 17  1
 16 18  1
 16 19  1
 17 20  1
 18 21  2
 18 22  1
 19 23  1
 22 24  1
 23 25  1
 24 26  2
 25 27  2
 25 28  1
 28 29  1
 28 30  1
 28 31  1
  8  9  2
 14 15  1
 22 23  2
 26 27  1
M  END
> <COMPOUND_NAMES>
Example 180 (+/-) (Page No: 431)

> <Reference>
WO2019148005

> <IC50_range_nM>
1001-3000

> <smiles>
CC(c1cc(NC)nc(c1)N1Cc2c(cccc2C(F)(F)F)C1=O)Sc1nncn1C

$$$$
C22H23F3N6O2S
  MOLSOFT 03092310482D

 34 37  0  0  0  0  0  0  0  0999 V2000
    0.0000   -0.0000    0.0000 S   0  0  0
    0.3056   -1.4575    0.0000 C   0  0  0
    1.1048    1.0108    0.0000 C   0  0  3
    1.6690   -2.0569    0.0000 N   0  0  0
   -0.7052   -2.5623    0.0000 N   0  0  0
    0.7757    2.4918    0.0000 C   0  0  0
    2.5153    0.5642    0.0000 C   0  0  0
    1.5045   -3.5378    0.0000 N   0  0  0
    0.0353   -3.8552    0.0000 C   0  0  0
   -2.2097   -2.3977    0.0000 C   0  0  0
    1.8806    3.5026    0.0000 C   0  0  0
   -0.6582    2.9619    0.0000 C   0  0  0
    1.5515    4.9835    0.0000 C   0  0  0
   -0.9873    4.4429    0.0000 C   0  0  0
    0.1175    5.4537    0.0000 N   0  0  0
    2.6563    5.9944    0.0000 N   0  0  0
   -2.4213    4.9130    0.0000 N   0  0  0
    2.4918    7.4988    0.0000 C   0  0  0
    4.1138    5.6888    0.0000 C   0  0  0
   -3.5496    3.9257    0.0000 C   0  0  3
    1.1754    8.2628    0.0000 O   0  0  0
    3.8552    8.1218    0.0000 C   0  0  0
    4.8543    7.0052    0.0000 C   0  0  0
   -4.9835    4.3959    0.0000 C   0  0  0
   -3.2440    2.4683    0.0000 C   0  0  0
    4.3018    9.5557    0.0000 C   0  0  0
    6.3117    7.3343    0.0000 C   0  0  0
   -6.1119    3.4086    0.0000 O   0  0  0
    5.7593    9.8848    0.0000 C   0  0  0
    6.7583    8.7682    0.0000 C   0  0  0
    7.2990    6.2294    0.0000 C   0  0  0
    6.1707    5.2421    0.0000 F   0  0  0
    8.2863    5.1246    0.0000 F   0  0  0
    8.4039    7.2402    0.0000 F   0  0  0
  1  2  1
  3  1  1
  2  4  2
  2  5  1
  3  6  1
  3  7  1
  4  8  1
  5  9  1
  5 10  1
  6 11  2
  6 12  1
 11 13  1
 12 14  2
 13 15  2
 13 16  1
 14 17  1
 16 18  1
 16 19  1
 20 17  1
 18 21  2
 18 22  1
 19 23  1
 20 24  1
 20 25  1
 22 26  1
 23 27  1
 24 28  1
 26 29  2
 27 30  2
 27 31  1
 31 32  1
 31 33  1
 31 34  1
  8  9  2
 14 15  1
 22 23  2
 29 30  1
M  END
> <COMPOUND_NAMES>
Example 176 (+/-) (Page No: 430)

> <Reference>
WO2019148005

> <IC50_range_nM>
301-1000

> <smiles>
CC(CO)Nc1cc(cc(n1)N1Cc2c(cccc2C(F)(F)F)C1=O)C(C)Sc1nncn1C

$$$$
C21H21F3N6O2S
  MOLSOFT 03092310482D

 33 36  0  0  0  0  0  0  0  0999 V2000
    0.0000   -0.0000    0.0000 S   0  0  0
    0.3052   -1.4557    0.0000 C   0  0  0
   -1.4322    0.4696    0.0000 C   0  0  3
    1.6670   -2.0544    0.0000 N   0  0  0
   -0.7044   -2.5592    0.0000 N   0  0  0
   -1.7609    1.9488    0.0000 C   0  0  0
   -2.5592   -0.5165    0.0000 C   0  0  0
    1.5027   -3.5336    0.0000 N   0  0  0
    0.0352   -3.8388    0.0000 C   0  0  0
   -2.2070   -2.3949    0.0000 C   0  0  0
   -0.6574    2.9583    0.0000 C   0  0  0
   -3.1931    2.4183    0.0000 C   0  0  0
   -0.9861    4.4375    0.0000 C   0  0  0
   -3.5218    3.8975    0.0000 C   0  0  0
   -2.4183    4.9071    0.0000 N   0  0  0
    0.1174    5.4471    0.0000 N   0  0  0
   -4.9541    4.3671    0.0000 N   0  0  0
   -0.0470    6.9498    0.0000 C   0  0  0
    1.5731    5.1419    0.0000 C   0  0  0
   -5.2828    5.8463    0.0000 C   0  0  0
   -1.3618    7.7128    0.0000 O   0  0  0
    1.3148    7.5720    0.0000 C   0  0  0
    2.3127    6.4567    0.0000 C   0  0  0
   -6.7150    6.3158    0.0000 C   0  0  0
    1.7609    9.0042    0.0000 C   0  0  0
    3.7684    6.7854    0.0000 C   0  0  0
   -7.0437    7.7950    0.0000 O   0  0  0
    3.2166    9.3329    0.0000 C   0  0  0
    4.2145    8.2176    0.0000 C   0  0  0
    4.7545    5.6819    0.0000 C   0  0  0
    3.6275    4.6958    0.0000 F   0  0  0
    5.7406    4.5784    0.0000 F   0  0  0
    5.8580    6.6915    0.0000 F   0  0  0
  1  2  1
  3  1  1
  2  4  2
  2  5  1
  3  6  1
  3  7  1
  4  8  1
  5  9  1
  5 10  1
  6 11  2
  6 12  1
 11 13  1
 12 14  2
 13 15  2
 13 16  1
 14 17  1
 16 18  1
 16 19  1
 17 20  1
 18 21  2
 18 22  1
 19 23  1
 20 24  1
 22 25  1
 23 26  1
 24 27  1
 25 28  2
 26 29  2
 26 30  1
 30 31  1
 30 32  1
 30 33  1
  8  9  2
 14 15  1
 22 23  2
 28 29  1
M  END
> <COMPOUND_NAMES>
Example 174 (+/-) (Page No: 429)

> <Reference>
WO2019148005

> <IC50_range_nM>
1001-3000

> <smiles>
CC(c1cc(NCCO)nc(c1)N1Cc2c(cccc2C(F)(F)F)C1=O)Sc1nncn1C

$$$$
C22H23F3N6O2S
  MOLSOFT 03092310482D

 34 37  0  0  1  0  0  0  0  0999 V2000
    0.0000   -0.0000    0.0000 S   0  0  0
    0.3054   -1.4567    0.0000 C   0  0  0
    1.1043    1.0103    0.0000 C   0  0  3
    1.6682   -2.0559    0.0000 N   0  0  0
   -0.7049   -2.5610    0.0000 N   0  0  0
    0.7754    2.4905    0.0000 C   0  0  0
    2.5140    0.5639    0.0000 C   0  0  0
    1.5037   -3.5361    0.0000 N   0  0  0
    0.0352   -3.8533    0.0000 C   0  0  0
   -2.2086   -2.3965    0.0000 C   0  0  0
    1.8796    3.5008    0.0000 C   0  0  0
   -0.6579    2.9604    0.0000 C   0  0  0
    1.5507    4.9810    0.0000 C   0  0  0
   -0.9868    4.4406    0.0000 C   0  0  0
    0.1175    5.4509    0.0000 N   0  0  0
    2.6550    5.9913    0.0000 N   0  0  0
   -2.4200    4.9106    0.0000 N   0  0  0
    2.4905    7.4951    0.0000 C   0  0  0
    4.1117    5.6859    0.0000 C   0  0  0
   -3.5478    3.9237    0.0000 C   0  0  0
    1.1748    8.2587    0.0000 O   0  0  0
    3.8533    8.1177    0.0000 C   0  0  0
    4.8518    7.0016    0.0000 C   0  0  0
   -4.9810    4.3937    0.0000 C   0  0  1
    4.2997    9.5509    0.0000 C   0  0  0
    6.3085    7.3306    0.0000 C   0  0  0
   -5.3100    5.8739    0.0000 O   0  0  0
   -6.1088    3.4068    0.0000 C   0  0  0
    5.7564    9.8798    0.0000 C   0  0  0
    6.7549    8.7638    0.0000 C   0  0  0
    7.2953    6.2263    0.0000 C   0  0  0
    6.1676    5.2395    0.0000 F   0  0  0
    8.2822    5.1220    0.0000 F   0  0  0
    8.3996    7.2366    0.0000 F   0  0  0
  1  2  1
  3  1  1
  2  4  2
  2  5  1
  3  6  1
  3  7  1
  4  8  1
  5  9  1
  5 10  1
  6 11  2
  6 12  1
 11 13  1
 12 14  2
 13 15  2
 13 16  1
 14 17  1
 16 18  1
 16 19  1
 17 20  1
 18 21  2
 18 22  1
 19 23  1
 24 20  1
 22 25  1
 23 26  1
 24 27  1  6  0
 24 28  1
 25 29  2
 26 30  2
 26 31  1
 31 32  1
 31 33  1
 31 34  1
  8  9  2
 14 15  1
 22 23  2
 29 30  1
M  END
> <COMPOUND_NAMES>
Example 177 (S) (Page No: 430)

> <Reference>
WO2019148005

> <IC50_range_nM>
3001-10000

> <smiles>
CC(c1cc(NC[C@H](C)O)nc(c1)N1Cc2c(cccc2C(F)(F)F)C1=O)Sc1nncn1C

$$$$
C23H23F3N6O2S
  MOLSOFT 03092310482D

 35 39  0  0  0  0  0  0  0  0999 V2000
    0.0000   -0.0000    0.0000 S   0  0  0
    0.3052   -1.4554    0.0000 C   0  0  0
   -1.4319    0.4695    0.0000 C   0  0  3
    1.6667   -2.0540    0.0000 N   0  0  0
   -0.7042   -2.5587    0.0000 N   0  0  0
   -1.7606    1.9484    0.0000 C   0  0  0
   -2.5587   -0.5164    0.0000 C   0  0  0
    1.5024   -3.5329    0.0000 N   0  0  0
    0.0352   -3.8380    0.0000 C   0  0  0
   -2.2066   -2.3944    0.0000 C   0  0  0
   -0.6573    2.9578    0.0000 C   0  0  0
   -3.1925    2.4178    0.0000 C   0  0  0
   -0.9859    4.4366    0.0000 C   0  0  0
   -3.5211    3.8967    0.0000 C   0  0  0
   -2.4178    4.9061    0.0000 N   0  0  0
    0.1174    5.4460    0.0000 N   0  0  0
   -4.9531    4.3662    0.0000 N   0  0  0
   -0.0469    6.9484    0.0000 C   0  0  0
    1.5728    5.1409    0.0000 C   0  0  0
   -5.2817    5.8451    0.0000 C   0  0  3
   -1.3615    7.7113    0.0000 O   0  0  0
    1.3146    7.5704    0.0000 C   0  0  0
    2.3122    6.4554    0.0000 C   0  0  0
   -4.2958    6.9718    0.0000 C   0  0  0
   -6.6667    6.4672    0.0000 C   0  0  0
    1.7606    9.0024    0.0000 C   0  0  0
    3.7676    6.7841    0.0000 C   0  0  0
   -5.0587    8.2747    0.0000 O   0  0  0
   -6.5258    7.9695    0.0000 C   0  0  0
    3.2160    9.3310    0.0000 C   0  0  0
    4.2136    8.2160    0.0000 C   0  0  0
    4.7535    5.6808    0.0000 C   0  0  0
    3.6268    4.6948    0.0000 F   0  0  0
    5.7395    4.5775    0.0000 F   0  0  0
    5.8568    6.6902    0.0000 F   0  0  0
  1  2  1
  3  1  1
  2  4  2
  2  5  1
  3  6  1
  3  7  1
  4  8  1
  5  9  1
  5 10  1
  6 11  2
  6 12  1
 11 13  1
 12 14  2
 13 15  2
 13 16  1
 14 17  1
 16 18  1
 16 19  1
 20 17  1
 18 21  2
 18 22  1
 19 23  1
 20 24  1
 20 25  1
 22 26  1
 23 27  1
 24 28  1
 25 29  1
 26 30  2
 27 31  2
 27 32  1
 32 33  1
 32 34  1
 32 35  1
  8  9  2
 14 15  1
 22 23  2
 28 29  1
 30 31  1
M  END
> <COMPOUND_NAMES>
Example 179 (+/-) (Page No: 431)

> <Reference>
WO2019148005

> <IC50_range_nM>
3001-10000

> <smiles>
CC(c1cc(NC2CCOC2)nc(c1)N1Cc2c(cccc2C(F)(F)F)C1=O)Sc1nncn1C

$$$$
C20H20N6O2S
  MOLSOFT 03092310482D

 29 32  0  0  0  0  0  0  0  0999 V2000
    0.0000   -0.0000    0.0000 S   0  0  0
    0.7301    1.3071    0.0000 C   0  0  0
   -1.5073    0.0118    0.0000 C   0  0  3
    0.1060    2.6849    0.0000 N   0  0  0
    2.2021    1.4720    0.0000 N   0  0  0
   -2.2610   -1.2718    0.0000 C   0  0  0
   -2.2610    1.3189    0.0000 C   0  0  0
    1.2011    3.6976    0.0000 N   0  0  0
    2.4965    2.9440    0.0000 C   0  0  0
    3.1912    0.3768    0.0000 C   0  0  0
   -3.7683   -1.2600    0.0000 C   0  0  0
   -1.5309   -2.5554    0.0000 C   0  0  0
   -4.5219   -2.5436    0.0000 C   0  0  0
   -2.2845   -3.8389    0.0000 C   0  0  0
   -3.7918   -3.8271    0.0000 N   0  0  0
   -6.0292   -2.5318    0.0000 N   0  0  0
   -6.9242   -1.3071    0.0000 C   0  0  0
   -6.9242   -3.7329    0.0000 C   0  0  0
   -6.4767    0.1295    0.0000 O   0  0  0
   -8.3608   -1.7546    0.0000 C   0  0  0
   -8.3608   -3.2619    0.0000 C   0  0  0
   -9.6680   -1.0009    0.0000 C   0  0  0
   -9.6680   -3.9920    0.0000 C   0  0  0
  -10.9751   -1.7310    0.0000 C   0  0  0
  -10.9751   -3.2384    0.0000 C   0  0  0
  -12.2822   -0.9774    0.0000 C   0  0  0
  -12.2940    0.5299    0.0000 O   0  0  0
  -13.5893   -1.7075    0.0000 N   0  0  0
  -14.8964   -0.9538    0.0000 C   0  0  0
  1  2  1
  3  1  1
  2  4  2
  2  5  1
  3  6  1
  3  7  1
  4  8  1
  5  9  1
  5 10  1
  6 11  2
  6 12  1
 11 13  1
 12 14  2
 13 15  2
 13 16  1
 16 17  1
 16 18  1
 17 19  2
 17 20  1
 18 21  1
 20 22  1
 21 23  1
 22 24  2
 23 25  2
 24 26  1
 26 27  2
 26 28  1
 28 29  1
  8  9  2
 14 15  1
 20 21  2
 24 25  1
M  END
> <COMPOUND_NAMES>
Example 173 (+/-) (Page No: 429)

> <Reference>
WO2019148005

> <IC50_range_nM>
3001-10000

> <smiles>
CC(c1ccnc(c1)N1Cc2ccc(cc2C1=O)C(NC)=O)Sc1nncn1C

$$$$
C18H16ClN5OS
  MOLSOFT 03092310482D

 26 29  0  0  1  0  0  0  0  0999 V2000
    0.0000   -0.0000    0.0000 Cl  0  0  0
   -1.0097    1.1271    0.0000 C   0  0  0
   -0.5636    2.5595    0.0000 N   0  0  0
   -2.4891    0.8219    0.0000 C   0  0  0
   -1.5733    3.6866    0.0000 C   0  0  0
   -3.4988    1.9490    0.0000 C   0  0  0
   -3.2522   -0.4696    0.0000 C   0  0  0
   -3.0526    3.3814    0.0000 C   0  0  0
   -4.8842    1.3502    0.0000 C   0  0  0
   -4.7316   -0.1409    0.0000 N   0  0  0
   -6.1992    2.1134    0.0000 O   0  0  0
   -5.8587   -1.1271    0.0000 C   0  0  0
   -5.5534   -2.5830    0.0000 C   0  0  0
   -7.2911   -0.6575    0.0000 C   0  0  0
   -6.6806   -3.5692    0.0000 C   0  0  0
   -8.4182   -1.6437    0.0000 C   0  0  0
   -8.1129   -3.0996    0.0000 C   0  0  0
   -6.3753   -5.0251    0.0000 C   0  0  1
   -4.9664   -5.4713    0.0000 S   0  0  0
   -7.5024   -6.0113    0.0000 C   0  0  0
   -4.6611   -6.9271    0.0000 C   0  0  0
   -3.2992   -7.5259    0.0000 N   0  0  0
   -5.6708   -8.0308    0.0000 N   0  0  0
   -3.4636   -9.0053    0.0000 N   0  0  0
   -4.9312   -9.3105    0.0000 C   0  0  0
   -7.1737   -7.8664    0.0000 C   0  0  0
  1  2  1
  2  3  2
  2  4  1
  3  5  1
  4  6  2
  4  7  1
  5  8  2
  6  9  1
  7 10  1
  9 11  2
 10 12  1
 12 13  2
 12 14  1
 13 15  1
 14 16  2
 15 17  2
 18 15  1
 18 19  1  1  0
 18 20  1
 19 21  1
 21 22  2
 21 23  1
 22 24  1
 23 25  1
 23 26  1
  6  8  1
  9 10  1
 16 17  1
 24 25  2
M  END
> <COMPOUND_NAMES>
Example 167 (S) (Page No: 424)

> <Reference>
WO2019148005

> <IC50_range_nM>
301-1000

> <smiles>
C[C@@H](c1cccc(c1)N1Cc2c(ccnc2[Cl])C1=O)Sc1nncn1C

$$$$
C27H27F4N5O3
  MOLSOFT 03092310482D

 39 44  0  0  0  0  0  0  0  0999 V2000
    0.0000   -0.0000    0.0000 F   0  0  0
    1.1033    1.0094    0.0000 C   0  0  0
    2.1009   -0.0939    0.0000 F   0  0  0
    2.2065    2.0305    0.0000 F   0  0  0
    0.0822    2.1361    0.0000 C   0  0  0
   -1.3967    1.8310    0.0000 C   0  0  0
    0.5282    3.5680    0.0000 C   0  0  0
   -2.4178    2.9577    0.0000 C   0  0  0
   -2.1596    0.5399    0.0000 C   0  0  0
   -0.4929    4.6948    0.0000 C   0  0  0
   -3.8028    2.3591    0.0000 C   0  0  0
   -1.9718    4.3896    0.0000 C   0  0  0
   -3.6384    0.8685    0.0000 N   0  0  0
   -0.0469    6.1267    0.0000 C   0  0  0
   -5.1173    3.1220    0.0000 O   0  0  0
   -4.7652   -0.1291    0.0000 C   0  0  0
    1.4084    6.4553    0.0000 N   0  0  0
   -4.4600   -1.5845    0.0000 C   0  0  0
   -6.1971    0.3404    0.0000 C   0  0  0
    1.8544    7.8872    0.0000 C   0  0  0
    2.4061    5.3520    0.0000 C   0  0  0
   -5.5868   -2.5704    0.0000 C   0  0  0
   -7.3238   -0.6573    0.0000 C   0  0  0
    3.3098    8.2158    0.0000 C   0  0  0
    3.8614    5.6807    0.0000 C   0  0  0
   -7.0304   -2.1009    0.0000 C   0  0  0
   -5.2816   -4.0258    0.0000 C   0  0  0
    4.3074    7.1126    0.0000 C   0  0  0
   -6.7135   -3.5563    0.0000 O   0  0  0
   -4.0375   -4.8356    0.0000 C   0  0  0
   -6.1149   -5.2699    0.0000 C   0  0  0
    5.7628    7.4412    0.0000 F   0  0  0
   -7.8402   -4.5539    0.0000 C   0  0  0
   -4.8708   -6.0797    0.0000 O   0  0  0
   -9.3191   -4.2253    0.0000 N   0  0  0
   -7.6994   -6.0328    0.0000 N   0  0  0
  -10.0820   -5.5163    0.0000 N   0  0  0
   -9.0844   -6.6313    0.0000 C   0  0  0
   -6.4083   -6.7722    0.0000 C   0  0  0
  1  2  1
  2  3  1
  2  4  1
  2  5  1
  5  6  2
  5  7  1
  6  8  1
  6  9  1
  7 10  2
  8 11  1
  8 12  2
  9 13  1
 10 14  1
 11 15  2
 13 16  1
 14 17  1
 16 18  2
 16 19  1
 17 20  1
 17 21  1
 18 22  1
 19 23  2
 20 24  1
 21 25  1
 22 26  2
 22 27  1
 24 28  1
 27 29  1
 27 30  1
 27 31  1
 28 32  1
 29 33  1
 30 34  1
 33 35  2
 33 36  1
 35 37  1
 36 38  1
 36 39  1
 10 12  1
 11 13  1
 23 26  1
 25 28  1
 31 34  1
 37 38  2
M  END
> <COMPOUND_NAMES>
Example 700 (Page No: 778)

> <Reference>
WO2019148005

> <IC50_range_nM>
101-300

> <smiles>
Cn1cnnc1OC1(COC1)c1cccc(c1)N1Cc2c(cc(CN3CCC(CC3)F)cc2C(F)(F)F)C1=O

$$$$
C18H17F3N6O
  MOLSOFT 03092310482D

 28 30  0  0  1  0  0  0  0  0999 V2000
    0.0000   -0.0000    0.0000 F   0  0  0
   -0.0119   -1.4953    0.0000 C   0  0  0
    1.4834   -1.4834    0.0000 F   0  0  0
   -1.5309   -1.4834    0.0000 F   0  0  0
   -0.0237   -2.9906    0.0000 C   0  0  0
    1.2698   -3.7383    0.0000 N   0  0  0
   -1.3410   -3.7383    0.0000 C   0  0  0
    1.2580   -5.2336    0.0000 C   0  0  0
   -1.3529   -5.2336    0.0000 C   0  0  0
    2.5515   -5.9694    0.0000 N   0  0  0
   -0.0593   -5.9694    0.0000 C   0  0  0
    3.8451   -5.2098    0.0000 C   0  0  0
    3.8332   -3.6908    0.0000 O   0  0  0
    5.1386   -5.9456    0.0000 C   0  0  0
    6.4322   -5.1861    0.0000 N   0  0  0
    5.1268   -7.4409    0.0000 C   0  0  0
    7.7258   -5.9219    0.0000 C   0  0  0
    6.4203   -8.1767    0.0000 C   0  0  0
    7.7139   -7.4172    0.0000 C   0  0  0
    6.4085   -9.6720    0.0000 C   0  0  1
    7.7020  -10.4078    0.0000 C   0  0  0
    5.0912  -10.4078    0.0000 C   0  0  0
    7.6902  -11.9031    0.0000 C   0  0  0
    8.9006  -12.7813    0.0000 N   0  0  0
    6.4559  -12.7813    0.0000 N   0  0  0
    8.4259  -14.2054    0.0000 N   0  0  0
    6.9069  -14.2054    0.0000 C   0  0  0
    5.0081  -12.3066    0.0000 C   0  0  0
  1  2  1
  2  3  1
  2  4  1
  2  5  1
  5  6  2
  5  7  1
  6  8  1
  7  9  2
  8 10  1
  8 11  2
 10 12  1
 12 13  2
 12 14  1
 14 15  2
 14 16  1
 15 17  1
 16 18  2
 17 19  2
 20 18  1
 20 21  1
 20 22  1  1  0
 21 23  1
 23 24  2
 23 25  1
 24 26  1
 25 27  1
 25 28  1
  9 11  1
 18 19  1
 26 27  2
M  END
> <COMPOUND_NAMES>
Compound 14 (R) (Page No: 56, Table No: 1)

> <Reference>
WO 2021/021761 A1

> <IC50_range_nM>
101-1000

> <smiles>
C[C@H](Cc1nncn1C)c1ccnc(c1)C(Nc1cccc(C(F)(F)F)n1)=O

$$$$
C18H17F3N6O
  MOLSOFT 03092310482D

 28 30  0  0  1  0  0  0  0  0999 V2000
    0.0000   -0.0000    0.0000 F   0  0  0
    0.7291    1.3053    0.0000 C   0  0  0
    2.0109    0.5762    0.0000 F   0  0  0
    1.4582    2.6106    0.0000 F   0  0  0
   -0.5762    2.0579    0.0000 C   0  0  0
   -0.5880    3.5631    0.0000 N   0  0  0
   -1.8815    1.3288    0.0000 C   0  0  0
   -1.8933    4.3157    0.0000 C   0  0  0
   -3.1868    2.0814    0.0000 C   0  0  0
   -1.9050    5.8209    0.0000 C   0  0  0
   -3.1986    3.5866    0.0000 C   0  0  0
   -3.2103    6.5735    0.0000 O   0  0  0
   -0.6232    6.5735    0.0000 N   0  0  0
   -0.6350    8.0787    0.0000 C   0  0  0
    0.6468    8.8313    0.0000 N   0  0  0
   -1.9403    8.8313    0.0000 C   0  0  0
    0.6350   10.3365    0.0000 C   0  0  0
   -1.9521   10.3365    0.0000 C   0  0  0
   -0.6703   11.0891    0.0000 C   0  0  0
   -3.2574   11.0891    0.0000 C   0  0  1
   -4.5626   10.3600    0.0000 C   0  0  0
   -3.2691   12.5943    0.0000 C   0  0  0
   -5.8679   11.1126    0.0000 C   0  0  0
   -7.2438   10.5129    0.0000 N   0  0  0
   -6.0326   12.6061    0.0000 N   0  0  0
   -8.2551   11.6300    0.0000 N   0  0  0
   -7.5025   12.9236    0.0000 C   0  0  0
   -4.9389   13.6174    0.0000 C   0  0  0
  1  2  1
  2  3  1
  2  4  1
  2  5  1
  5  6  2
  5  7  1
  6  8  1
  7  9  2
  8 10  1
  8 11  2
 10 12  2
 10 13  1
 13 14  1
 14 15  2
 14 16  1
 15 17  1
 16 18  2
 17 19  2
 20 18  1
 20 21  1
 20 22  1  1  0
 21 23  1
 23 24  2
 23 25  1
 24 26  1
 25 27  1
 25 28  1
  9 11  1
 18 19  1
 26 27  2
M  END
> <COMPOUND_NAMES>
Example 302 (R) (Page No: 508)

> <Reference>
WO2019148005

> <IC50_range_nM>
301-1000

> <smiles>
C[C@H](Cc1nncn1C)c1ccnc(c1)NC(c1cccc(C(F)(F)F)n1)=O

$$$$
C19H18F3N5O
  MOLSOFT 03092310482D

 28 30  0  0  1  0  0  0  0  0999 V2000
    0.0000   -0.0000    0.0000 F   0  0  0
   -0.0119   -1.4953    0.0000 C   0  0  0
    1.4834   -1.4834    0.0000 F   0  0  0
   -1.5309   -1.4834    0.0000 F   0  0  0
   -0.0237   -2.9906    0.0000 C   0  0  0
    1.2698   -3.7383    0.0000 N   0  0  0
   -1.3410   -3.7383    0.0000 C   0  0  0
    1.2580   -5.2336    0.0000 C   0  0  0
   -1.3529   -5.2336    0.0000 C   0  0  0
    2.5515   -5.9694    0.0000 N   0  0  0
   -0.0593   -5.9694    0.0000 C   0  0  0
    3.8451   -5.2098    0.0000 C   0  0  0
    3.8332   -3.6908    0.0000 O   0  0  0
    5.1386   -5.9456    0.0000 C   0  0  0
    5.1268   -7.4409    0.0000 C   0  0  0
    6.4322   -5.1861    0.0000 C   0  0  0
    6.4203   -8.1767    0.0000 C   0  0  0
    7.7258   -5.9219    0.0000 C   0  0  0
    7.7139   -7.4172    0.0000 C   0  0  0
    6.4085   -9.6720    0.0000 C   0  0  1
    7.7020  -10.4078    0.0000 C   0  0  0
    5.0912  -10.4078    0.0000 C   0  0  0
    7.6902  -11.9031    0.0000 C   0  0  0
    8.9006  -12.7813    0.0000 N   0  0  0
    6.4559  -12.7813    0.0000 N   0  0  0
    8.4259  -14.2054    0.0000 N   0  0  0
    6.9069  -14.2054    0.0000 C   0  0  0
    5.0081  -12.3066    0.0000 C   0  0  0
  1  2  1
  2  3  1
  2  4  1
  2  5  1
  5  6  2
  5  7  1
  6  8  1
  7  9  2
  8 10  1
  8 11  2
 10 12  1
 12 13  2
 12 14  1
 14 15  2
 14 16  1
 15 17  1
 16 18  2
 17 19  2
 20 17  1
 20 21  1
 20 22  1  1  0
 21 23  1
 23 24  2
 23 25  1
 24 26  1
 25 27  1
 25 28  1
  9 11  1
 18 19  1
 26 27  2
M  END
> <COMPOUND_NAMES>
Compound 18 (R) (Page No: 56, Table No: 1)

> <Reference>
WO 2021/021761 A1

> <IC50_range_nM>
>5000

> <smiles>
C[C@H](Cc1nncn1C)c1cccc(c1)C(Nc1cccc(C(F)(F)F)n1)=O

$$$$
C22H27N5O
  MOLSOFT 03092310482D

 28 30  0  0  1  0  0  0  0  0999 V2000
    0.0000   -0.0000    0.0000 O   0  0  0
    1.2865   -0.7318    0.0000 C   0  0  0
    2.5731    0.0236    0.0000 N   0  0  0
    1.2747   -2.2190    0.0000 C   0  0  0
    2.5613    1.5344    0.0000 C   0  0  0
   -0.0354   -2.9508    0.0000 N   0  0  0
    2.5613   -2.9508    0.0000 C   0  0  0
    1.2511    2.2898    0.0000 C   0  0  0
    3.8478    2.2898    0.0000 C   0  0  0
   -0.0472   -4.4380    0.0000 C   0  0  0
    2.5495   -4.4380    0.0000 C   0  0  0
    1.2393    3.8006    0.0000 C   0  0  0
    3.8360    3.8006    0.0000 C   0  0  0
    1.2393   -5.1698    0.0000 C   0  0  0
   -1.3574   -5.1698    0.0000 C   0  0  0
    2.5259    4.5560    0.0000 C   0  0  0
   -0.0708    4.5560    0.0000 C   0  0  1
   -2.1128   -3.8596    0.0000 C   0  0  0
   -2.6675   -5.9016    0.0000 C   0  0  0
   -0.6256   -6.4563    0.0000 C   0  0  0
   -1.3810    3.8242    0.0000 C   0  0  0
   -0.0826    6.0668    0.0000 C   0  0  0
   -2.6911    4.5796    0.0000 C   0  0  0
   -4.0721    3.9777    0.0000 N   0  0  0
   -2.8564    6.0786    0.0000 N   0  0  0
   -5.0872    5.0990    0.0000 N   0  0  0
   -4.3318    6.3973    0.0000 C   0  0  0
   -1.7587    7.0937    0.0000 C   0  0  0
  1  2  2
  2  3  1
  2  4  1
  3  5  1
  4  6  2
  4  7  1
  5  8  2
  5  9  1
  6 10  1
  7 11  2
  8 12  1
  9 13  2
 10 14  2
 10 15  1
 12 16  2
 17 12  1
 15 18  1
 15 19  1
 15 20  1
 17 21  1
 17 22  1  1  0
 21 23  1
 23 24  2
 23 25  1
 24 26  1
 25 27  1
 25 28  1
 11 14  1
 13 16  1
 26 27  2
M  END
> <COMPOUND_NAMES>
Example 321 (R) (Page No: 522)

> <Reference>
WO2019148005

> <IC50_range_nM>
<100

> <smiles>
C[C@H](Cc1nncn1C)c1cccc(c1)NC(c1cccc(C(C)(C)C)n1)=O

$$$$
C20H23N5O2
  MOLSOFT 03092310482D

 27 29  0  0  1  0  0  0  0  0999 V2000
    0.0000   -0.0000    0.0000 O   0  0  0
    1.2865   -0.7318    0.0000 C   0  0  0
    2.5730    0.0236    0.0000 N   0  0  0
    1.2747   -2.2190    0.0000 C   0  0  0
    2.5612    1.5344    0.0000 C   0  0  0
    2.5612   -2.9507    0.0000 N   0  0  0
   -0.0354   -2.9507    0.0000 C   0  0  0
    1.2511    2.2898    0.0000 C   0  0  0
    3.8478    2.2898    0.0000 C   0  0  0
    2.5494   -4.4379    0.0000 C   0  0  0
   -0.0472   -4.4379    0.0000 C   0  0  0
    1.2393    3.8005    0.0000 C   0  0  0
    3.8360    3.8005    0.0000 C   0  0  0
    1.2393   -5.1815    0.0000 C   0  0  0
    3.8360   -5.1815    0.0000 C   0  0  0
    2.5258    4.5677    0.0000 C   0  0  0
   -0.0708    4.5677    0.0000 C   0  0  1
    3.8242   -6.6687    0.0000 C   0  0  0
   -1.3809    3.8242    0.0000 C   0  0  0
   -0.0826    6.0785    0.0000 C   0  0  0
    5.1107   -7.4004    0.0000 O   0  0  0
   -2.6911    4.5913    0.0000 C   0  0  0
   -4.0720    3.9894    0.0000 N   0  0  0
   -2.8563    6.0903    0.0000 N   0  0  0
   -5.0871    5.1107    0.0000 N   0  0  0
   -4.3317    6.4090    0.0000 C   0  0  0
   -1.7586    7.1054    0.0000 C   0  0  0
  1  2  2
  2  3  1
  2  4  1
  3  5  1
  4  6  2
  4  7  1
  5  8  2
  5  9  1
  6 10  1
  7 11  2
  8 12  1
  9 13  2
 10 14  2
 10 15  1
 12 16  2
 17 12  1
 15 18  1
 17 19  1
 17 20  1  1  0
 18 21  1
 19 22  1
 22 23  2
 22 24  1
 23 25  1
 24 26  1
 24 27  1
 11 14  1
 13 16  1
 25 26  2
M  END
> <COMPOUND_NAMES>
Example 202 (R) (Page No: 443)

> <Reference>
WO2019148005

> <IC50_range_nM>
301-1000

> <smiles>
C[C@H](Cc1nncn1C)c1cccc(c1)NC(c1cccc(CCO)n1)=O

$$$$
C19H18F3N5O
  MOLSOFT 03092310482D

 28 30  0  0  1  0  0  0  0  0999 V2000
    0.0000   -0.0000    0.0000 F   0  0  0
    0.7291    1.3053    0.0000 C   0  0  0
    2.0109    0.5762    0.0000 F   0  0  0
    1.4582    2.6106    0.0000 F   0  0  0
   -0.5762    2.0579    0.0000 C   0  0  0
   -0.5880    3.5631    0.0000 N   0  0  0
   -1.8815    1.3288    0.0000 C   0  0  0
   -1.8933    4.3157    0.0000 C   0  0  0
   -3.1868    2.0814    0.0000 C   0  0  0
   -1.9050    5.8209    0.0000 C   0  0  0
   -3.1986    3.5866    0.0000 C   0  0  0
   -3.2103    6.5735    0.0000 O   0  0  0
   -0.6232    6.5735    0.0000 N   0  0  0
   -0.6350    8.0787    0.0000 C   0  0  0
   -1.9403    8.8313    0.0000 C   0  0  0
    0.6468    8.8313    0.0000 C   0  0  0
   -1.9521   10.3365    0.0000 C   0  0  0
    0.6350   10.3365    0.0000 C   0  0  0
   -0.6703   11.0891    0.0000 C   0  0  0
   -3.2574   11.0891    0.0000 C   0  0  1
   -4.5626   10.3600    0.0000 C   0  0  0
   -3.2691   12.5943    0.0000 C   0  0  0
   -5.8679   11.1126    0.0000 C   0  0  0
   -7.2438   10.5129    0.0000 N   0  0  0
   -6.0326   12.6061    0.0000 N   0  0  0
   -8.2551   11.6300    0.0000 N   0  0  0
   -7.5025   12.9236    0.0000 C   0  0  0
   -4.9389   13.6174    0.0000 C   0  0  0
  1  2  1
  2  3  1
  2  4  1
  2  5  1
  5  6  2
  5  7  1
  6  8  1
  7  9  2
  8 10  1
  8 11  2
 10 12  2
 10 13  1
 13 14  1
 14 15  2
 14 16  1
 15 17  1
 16 18  2
 17 19  2
 20 17  1
 20 21  1
 20 22  1  1  0
 21 23  1
 23 24  2
 23 25  1
 24 26  1
 25 27  1
 25 28  1
  9 11  1
 18 19  1
 26 27  2
M  END
> <COMPOUND_NAMES>
Example 183a (R) (Page No: 433)

> <Reference>
WO2019148005

> <IC50_range_nM>
<100

> <smiles>
C[C@H](Cc1nncn1C)c1cccc(c1)NC(c1cccc(C(F)(F)F)n1)=O

$$$$
C19H18F3N5O
  MOLSOFT 03092310482D

 28 30  0  0  1  0  0  0  0  0999 V2000
    0.0000   -0.0000    0.0000 F   0  0  0
    0.7291    1.3053    0.0000 C   0  0  0
    2.0109    0.5762    0.0000 F   0  0  0
    1.4582    2.6106    0.0000 F   0  0  0
   -0.5762    2.0579    0.0000 C   0  0  0
   -0.5880    3.5631    0.0000 N   0  0  0
   -1.8815    1.3288    0.0000 C   0  0  0
   -1.8933    4.3157    0.0000 C   0  0  0
   -3.1868    2.0814    0.0000 C   0  0  0
   -1.9050    5.8209    0.0000 C   0  0  0
   -3.1986    3.5866    0.0000 C   0  0  0
   -3.2103    6.5735    0.0000 O   0  0  0
   -0.6232    6.5735    0.0000 N   0  0  0
   -0.6350    8.0787    0.0000 C   0  0  0
   -1.9403    8.8313    0.0000 C   0  0  0
    0.6468    8.8313    0.0000 C   0  0  0
   -1.9521   10.3365    0.0000 C   0  0  0
    0.6350   10.3365    0.0000 C   0  0  0
   -0.6703   11.0891    0.0000 C   0  0  0
   -3.2574   11.0891    0.0000 C   0  0  1
   -4.5626   10.3600    0.0000 C   0  0  0
   -3.2691   12.5943    0.0000 C   0  0  0
   -5.8679   11.1126    0.0000 C   0  0  0
   -7.2438   10.5129    0.0000 N   0  0  0
   -6.0326   12.6061    0.0000 N   0  0  0
   -8.2551   11.6300    0.0000 N   0  0  0
   -7.5025   12.9236    0.0000 C   0  0  0
   -4.9389   13.6174    0.0000 C   0  0  0
  1  2  1
  2  3  1
  2  4  1
  2  5  1
  5  6  2
  5  7  1
  6  8  1
  7  9  2
  8 10  1
  8 11  2
 10 12  2
 10 13  1
 13 14  1
 14 15  2
 14 16  1
 15 17  1
 16 18  2
 17 19  2
 20 17  1
 20 21  1
 20 22  1  1  0
 21 23  1
 23 24  2
 23 25  1
 24 26  1
 25 27  1
 25 28  1
  9 11  1
 18 19  1
 26 27  2
M  END
> <COMPOUND_NAMES>
Example 183b (S) (Page No: 433)

> <Reference>
WO2019148005

> <IC50_range_nM>
101-300

> <smiles>
C[C@H](Cc1nncn1C)c1cccc(c1)NC(c1cccc(C(F)(F)F)n1)=O

$$$$
C20H20F3N5O
  MOLSOFT 03092310482D

 29 31  0  0  0  0  0  0  0  0999 V2000
    0.0000   -0.0000    0.0000 F   0  0  0
    0.7302    1.3073    0.0000 C   0  0  0
    2.0139    0.5771    0.0000 F   0  0  0
    1.4604    2.6145    0.0000 F   0  0  0
   -0.5771    2.0610    0.0000 C   0  0  0
   -0.5889    3.5685    0.0000 N   0  0  0
   -1.8843    1.3308    0.0000 C   0  0  0
   -1.8961    4.3222    0.0000 C   0  0  0
   -3.1916    2.0845    0.0000 C   0  0  0
   -1.9079    5.8297    0.0000 C   0  0  0
   -3.2034    3.5802    0.0000 C   0  0  0
   -3.2151    6.5834    0.0000 O   0  0  0
   -0.6242    6.5834    0.0000 N   0  0  0
   -0.6360    8.0909    0.0000 C   0  0  0
   -1.9432    8.8446    0.0000 C   0  0  0
    0.6477    8.8446    0.0000 C   0  0  0
   -1.9550   10.3521    0.0000 C   0  0  0
    0.6360   10.3521    0.0000 C   0  0  0
   -0.6713   11.1058    0.0000 C   0  0  0
   -3.2623   11.1058    0.0000 C   0  0  0
   -4.5695   11.8713    0.0000 C   0  0  0
   -4.0160    9.8221    0.0000 C   0  0  0
   -2.5321   12.4131    0.0000 C   0  0  0
   -5.8768   11.1294    0.0000 C   0  0  0
   -7.2547   11.7535    0.0000 N   0  0  0
   -6.0417    9.6572    0.0000 N   0  0  0
   -8.2675   10.6583    0.0000 N   0  0  0
   -7.5138    9.3628    0.0000 C   0  0  0
   -4.9464    8.6679    0.0000 C   0  0  0
  1  2  1
  2  3  1
  2  4  1
  2  5  1
  5  6  2
  5  7  1
  6  8  1
  7  9  2
  8 10  1
  8 11  2
 10 12  2
 10 13  1
 13 14  1
 14 15  2
 14 16  1
 15 17  1
 16 18  2
 17 19  2
 17 20  1
 20 21  1
 20 22  1
 20 23  1
 21 24  1
 24 25  2
 24 26  1
 25 27  1
 26 28  1
 26 29  1
  9 11  1
 18 19  1
 27 28  2
M  END
> <COMPOUND_NAMES>
Example 284 (Page No: 494)

> <Reference>
WO2019148005

> <IC50_range_nM>
<100

> <smiles>
CC(C)(Cc1nncn1C)c1cccc(c1)NC(c1cccc(C(F)(F)F)n1)=O

$$$$
C19H18F3N5O
  MOLSOFT 03092310482D

 28 30  0  0  1  0  0  0  0  0999 V2000
    0.0000   -0.0000    0.0000 F   0  0  0
    0.7291    1.3053    0.0000 C   0  0  0
    2.0109    0.5762    0.0000 F   0  0  0
    1.4582    2.6106    0.0000 F   0  0  0
   -0.5762    2.0579    0.0000 C   0  0  0
   -0.5880    3.5631    0.0000 C   0  0  0
   -1.8815    1.3288    0.0000 C   0  0  0
   -1.8933    4.3157    0.0000 C   0  0  0
   -3.1868    2.0814    0.0000 C   0  0  0
   -3.1986    3.5866    0.0000 N   0  0  0
   -1.9050    5.8209    0.0000 C   0  0  0
   -3.2103    6.5735    0.0000 O   0  0  0
   -0.6232    6.5735    0.0000 N   0  0  0
   -0.6350    8.0787    0.0000 C   0  0  0
   -1.9403    8.8313    0.0000 C   0  0  0
    0.6468    8.8313    0.0000 C   0  0  0
   -1.9521   10.3365    0.0000 C   0  0  0
    0.6350   10.3365    0.0000 C   0  0  0
   -0.6703   11.0891    0.0000 C   0  0  0
   -3.2574   11.0891    0.0000 C   0  0  1
   -4.5626   10.3600    0.0000 C   0  0  0
   -3.2691   12.5943    0.0000 C   0  0  0
   -5.8679   11.1126    0.0000 C   0  0  0
   -7.2438   10.5129    0.0000 N   0  0  0
   -6.0326   12.6061    0.0000 N   0  0  0
   -8.2551   11.6300    0.0000 N   0  0  0
   -7.5025   12.9236    0.0000 C   0  0  0
   -4.9389   13.6174    0.0000 C   0  0  0
  1  2  1
  2  3  1
  2  4  1
  2  5  1
  5  6  2
  5  7  1
  6  8  1
  7  9  2
  8 10  2
  8 11  1
 11 12  2
 11 13  1
 13 14  1
 14 15  2
 14 16  1
 15 17  1
 16 18  2
 17 19  2
 20 17  1
 20 21  1
 20 22  1  1  0
 21 23  1
 23 24  2
 23 25  1
 24 26  1
 25 27  1
 25 28  1
  9 10  1
 18 19  1
 26 27  2
M  END
> <COMPOUND_NAMES>
Example 184 (R) (Page No: 434)

> <Reference>
WO2019148005

> <IC50_range_nM>
1001-3000

> <smiles>
C[C@H](Cc1nncn1C)c1cccc(c1)NC(c1cc(ccn1)C(F)(F)F)=O

$$$$
C20H21F2N5O2
  MOLSOFT 03092310482D

 29 31  0  0  1  0  0  0  0  0999 V2000
    0.0000   -0.0000    0.0000 F   0  0  0
    0.7293    1.3057    0.0000 C   0  0  0
    1.4586    2.6114    0.0000 F   0  0  0
   -0.5764    2.0585    0.0000 C   0  0  0
    2.0114    0.5764    0.0000 C   0  0  0
   -0.5881    3.5641    0.0000 N   0  0  0
   -1.8821    1.3292    0.0000 C   0  0  0
    3.2936    1.3292    0.0000 O   0  0  0
   -1.8938    4.3170    0.0000 C   0  0  0
   -3.1877    2.0820    0.0000 C   0  0  0
   -1.9056    5.8226    0.0000 C   0  0  0
   -3.1995    3.5877    0.0000 C   0  0  0
   -3.2113    6.5754    0.0000 O   0  0  0
   -0.6234    6.5754    0.0000 N   0  0  0
   -0.6352    8.0811    0.0000 C   0  0  0
   -1.9409    8.8339    0.0000 C   0  0  0
    0.6470    8.8339    0.0000 C   0  0  0
   -1.9526   10.3395    0.0000 C   0  0  0
    0.6352   10.3395    0.0000 C   0  0  0
   -0.6705   11.0924    0.0000 C   0  0  0
   -3.2583   11.0924    0.0000 C   0  0  1
   -4.5640   10.3631    0.0000 C   0  0  0
   -3.2701   12.5980    0.0000 C   0  0  0
   -5.8697   11.1159    0.0000 C   0  0  0
   -7.2459   10.5160    0.0000 N   0  0  0
   -6.0343   12.6098    0.0000 N   0  0  0
   -8.2575   11.6334    0.0000 N   0  0  0
   -7.5047   12.9274    0.0000 C   0  0  0
   -4.9404   13.6214    0.0000 C   0  0  0
  1  2  1
  2  3  1
  2  4  1
  2  5  1
  4  6  2
  4  7  1
  5  8  1
  6  9  1
  7 10  2
  9 11  1
  9 12  2
 11 13  2
 11 14  1
 14 15  1
 15 16  2
 15 17  1
 16 18  1
 17 19  2
 18 20  2
 21 18  1
 21 22  1
 21 23  1  1  0
 22 24  1
 24 25  2
 24 26  1
 25 27  1
 26 28  1
 26 29  1
 10 12  1
 19 20  1
 27 28  2
M  END
> <COMPOUND_NAMES>
Example 188 (R) (Page No: 435)

> <Reference>
WO2019148005

> <IC50_range_nM>
101-300

> <smiles>
C[C@H](Cc1nncn1C)c1cccc(c1)NC(c1cccc(C(CO)(F)F)n1)=O

$$$$
C22H22F3N5O
  MOLSOFT 03092310482D

 31 34  0  0  1  0  0  0  0  0999 V2000
    0.0000   -0.0000    0.0000 F   0  0  0
    0.7319   -1.2867    0.0000 C   0  0  0
   -0.5784   -2.0186    0.0000 F   0  0  0
    1.4638   -2.5734    0.0000 F   0  0  0
    2.0186   -0.5312    0.0000 C   0  0  0
    2.0068    0.9798    0.0000 N   0  0  0
    3.3053   -1.2631    0.0000 C   0  0  0
    3.2935    1.7353    0.0000 C   0  0  0
    4.5920   -0.5076    0.0000 C   0  0  0
    3.2817    3.2462    0.0000 C   0  0  0
    4.5802    1.0034    0.0000 C   0  0  0
    5.8786   -1.2395    0.0000 C   0  0  0
    1.9714    4.0017    0.0000 O   0  0  0
    4.5683    4.0017    0.0000 N   0  0  0
    7.3660   -1.2277    0.0000 C   0  0  0
    6.6105   -2.5262    0.0000 C   0  0  0
    4.5565    5.5127    0.0000 C   0  0  0
    3.2462    6.2682    0.0000 C   0  0  0
    5.8432    6.2682    0.0000 C   0  0  0
    3.2344    7.7792    0.0000 C   0  0  0
    5.8314    7.7792    0.0000 C   0  0  0
    4.5211    8.5347    0.0000 C   0  0  0
    1.9241    8.5347    0.0000 C   0  0  1
    0.6138    7.8028    0.0000 C   0  0  0
    1.9123   10.0456    0.0000 C   0  0  0
   -0.6965    8.5583    0.0000 C   0  0  0
   -2.0776    7.9562    0.0000 N   0  0  0
   -0.8617   10.0574    0.0000 N   0  0  0
   -3.0928    9.0777    0.0000 N   0  0  0
   -2.3373   10.3762    0.0000 C   0  0  0
    0.2361   11.0726    0.0000 C   0  0  0
  1  2  1
  2  3  1
  2  4  1
  2  5  1
  5  6  2
  5  7  1
  6  8  1
  7  9  2
  8 10  1
  8 11  2
  9 12  1
 10 13  2
 10 14  1
 12 15  1
 12 16  1
 14 17  1
 17 18  2
 17 19  1
 18 20  1
 19 21  2
 20 22  2
 23 20  1
 23 24  1
 23 25  1  1  0
 24 26  1
 26 27  2
 26 28  1
 27 29  1
 28 30  1
 28 31  1
  9 11  1
 15 16  1
 21 22  1
 29 30  2
M  END
> <COMPOUND_NAMES>
Example 191 (R) (Page No: 436)

> <Reference>
WO2019148005

> <IC50_range_nM>
<100

> <smiles>
C[C@H](Cc1nncn1C)c1cccc(c1)NC(c1cc(cc(C(F)(F)F)n1)C1CC1)=O

$$$$
C22H22F3N5O
  MOLSOFT 03092310482D

 31 34  0  0  1  0  0  0  0  0999 V2000
    0.0000   -0.0000    0.0000 F   0  0  0
    0.7293    1.3057    0.0000 C   0  0  0
    2.0115    0.5764    0.0000 F   0  0  0
    1.4586    2.6114    0.0000 F   0  0  0
   -0.5764    2.0586    0.0000 C   0  0  0
   -0.5882    3.5643    0.0000 N   0  0  0
   -1.8821    1.3292    0.0000 C   0  0  0
   -1.8939    4.3171    0.0000 C   0  0  0
   -3.1878    2.0821    0.0000 C   0  0  0
   -1.9056    5.8228    0.0000 C   0  0  0
   -3.1996    3.5878    0.0000 C   0  0  0
   -4.4936    1.3528    0.0000 C   0  0  0
   -3.2114    6.5757    0.0000 O   0  0  0
   -0.6235    6.5757    0.0000 N   0  0  0
   -5.2464    0.0706    0.0000 C   0  0  0
   -5.9993    1.3645    0.0000 C   0  0  0
   -0.6352    8.0814    0.0000 C   0  0  0
   -1.9409    8.8342    0.0000 C   0  0  0
    0.6470    8.8342    0.0000 C   0  0  0
   -1.9527   10.3399    0.0000 C   0  0  0
    0.6352   10.3399    0.0000 C   0  0  0
   -0.6705   11.0927    0.0000 C   0  0  0
   -3.2584   11.0927    0.0000 C   0  0  1
   -4.5641   10.3634    0.0000 C   0  0  0
   -3.2702   12.5984    0.0000 C   0  0  0
   -5.8699   11.1163    0.0000 C   0  0  0
   -7.2462   10.5163    0.0000 N   0  0  0
   -6.0345   12.6102    0.0000 N   0  0  0
   -8.2578   11.6339    0.0000 N   0  0  0
   -7.5050   12.9278    0.0000 C   0  0  0
   -4.9406   13.6218    0.0000 C   0  0  0
  1  2  1
  2  3  1
  2  4  1
  2  5  1
  5  6  2
  5  7  1
  6  8  1
  7  9  2
  8 10  1
  8 11  2
  9 12  1
 10 13  2
 10 14  1
 12 15  1
 12 16  1
 14 17  1
 17 18  2
 17 19  1
 18 20  1
 19 21  2
 20 22  2
 23 20  1
 23 24  1
 23 25  1  1  0
 24 26  1
 26 27  2
 26 28  1
 27 29  1
 28 30  1
 28 31  1
  9 11  1
 15 16  1
 21 22  1
 29 30  2
M  END
> <COMPOUND_NAMES>
Example 322 (S) (Page No: 522)

> <Reference>
WO2019148005

> <IC50_range_nM>
301-1000

> <smiles>
C[C@H](Cc1nncn1C)c1cccc(c1)NC(c1cc(cc(C(F)(F)F)n1)C1CC1)=O

$$$$
C22H24F3N5O2
  MOLSOFT 03092310482D

 32 34  0  0  1  0  0  0  0  0999 V2000
    0.0000   -0.0000    0.0000 F   0  0  0
    0.7295    1.3060    0.0000 C   0  0  0
    2.0120    0.5765    0.0000 F   0  0  0
    1.4590    2.6120    0.0000 F   0  0  0
   -0.5765    2.0590    0.0000 C   0  0  0
   -0.5883    3.5651    0.0000 N   0  0  0
   -1.8826    1.3296    0.0000 C   0  0  0
   -1.8943    4.3181    0.0000 C   0  0  0
   -3.1886    2.0826    0.0000 C   0  0  0
   -1.9061    5.8241    0.0000 C   0  0  0
   -3.2003    3.5886    0.0000 C   0  0  0
   -4.4946    1.3531    0.0000 C   0  0  0
   -3.2121    6.5772    0.0000 O   0  0  0
   -0.6236    6.5772    0.0000 N   0  0  0
   -3.7651    0.0706    0.0000 O   0  0  0
   -5.2476    2.6591    0.0000 C   0  0  0
   -5.8006    0.6236    0.0000 C   0  0  0
   -0.6354    8.0832    0.0000 C   0  0  0
   -1.9414    8.8362    0.0000 C   0  0  0
    0.6471    8.8362    0.0000 C   0  0  0
   -1.9531   10.3423    0.0000 C   0  0  0
    0.6354   10.3423    0.0000 C   0  0  0
   -0.6707   11.0953    0.0000 C   0  0  0
   -3.2592   11.0953    0.0000 C   0  0  1
   -4.5652   10.3658    0.0000 C   0  0  0
   -3.2709   12.6013    0.0000 C   0  0  0
   -5.8712   11.1188    0.0000 C   0  0  0
   -7.2478   10.5188    0.0000 N   0  0  0
   -6.0359   12.6131    0.0000 N   0  0  0
   -8.2597   11.6365    0.0000 N   0  0  0
   -7.5067   12.9308    0.0000 C   0  0  0
   -4.9417   13.6250    0.0000 C   0  0  0
  1  2  1
  2  3  1
  2  4  1
  2  5  1
  5  6  2
  5  7  1
  6  8  1
  7  9  2
  8 10  1
  8 11  2
  9 12  1
 10 13  2
 10 14  1
 12 15  1
 12 16  1
 12 17  1
 14 18  1
 18 19  2
 18 20  1
 19 21  1
 20 22  2
 21 23  2
 24 21  1
 24 25  1
 24 26  1  1  0
 25 27  1
 27 28  2
 27 29  1
 28 30  1
 29 31  1
 29 32  1
  9 11  1
 22 23  1
 30 31  2
M  END
> <COMPOUND_NAMES>
Example 320 (R) (Page No: 521)

> <Reference>
WO2019148005

> <IC50_range_nM>
101-300

> <smiles>
C[C@H](Cc1nncn1C)c1cccc(c1)NC(c1cc(cc(C(F)(F)F)n1)C(C)(C)O)=O

$$$$
C20H20F3N5O2
  MOLSOFT 03092310482D

 30 32  0  0  1  0  0  0  0  0999 V2000
    0.0000   -0.0000    0.0000 F   0  0  0
   -1.4803    0.3290    0.0000 C   0  0  0
   -1.1749    1.8093    0.0000 F   0  0  0
   -2.9606    0.6579    0.0000 F   0  0  0
   -1.8093   -1.1279    0.0000 C   0  0  0
   -3.2426   -1.5743    0.0000 N   0  0  0
   -0.7049   -2.1265    0.0000 C   0  0  0
   -3.5716   -3.0311    0.0000 C   0  0  0
   -1.0339   -3.5833    0.0000 C   0  0  0
   -5.0049   -3.4776    0.0000 C   0  0  0
   -2.4672   -4.0298    0.0000 C   0  0  0
    0.0705   -4.5819    0.0000 O   0  0  0
   -6.1327   -2.4672    0.0000 O   0  0  0
   -5.3338   -4.9344    0.0000 N   0  0  0
    1.4803   -4.1120    0.0000 C   0  0  0
   -6.7672   -5.3808    0.0000 C   0  0  0
   -7.0961   -6.8377    0.0000 C   0  0  0
   -7.8950   -4.3587    0.0000 C   0  0  0
   -8.5295   -7.2841    0.0000 C   0  0  0
   -9.3284   -4.8169    0.0000 C   0  0  0
   -9.6573   -6.2620    0.0000 C   0  0  0
   -8.8584   -8.7409    0.0000 C   0  0  1
  -10.3035   -9.1874    0.0000 C   0  0  0
   -7.7540   -9.7278    0.0000 C   0  0  0
  -10.6324  -10.6442    0.0000 C   0  0  0
   -9.6456  -11.7486    0.0000 N   0  0  0
  -12.0188  -11.2434    0.0000 N   0  0  0
  -10.4092  -13.0409    0.0000 N   0  0  0
  -11.8778  -12.7237    0.0000 C   0  0  0
  -13.3346  -10.4797    0.0000 C   0  0  0
  1  2  1
  2  3  1
  2  4  1
  2  5  1
  5  6  2
  5  7  1
  6  8  1
  7  9  2
  8 10  1
  8 11  2
  9 12  1
 10 13  2
 10 14  1
 12 15  1
 14 16  1
 16 17  2
 16 18  1
 17 19  1
 18 20  2
 19 21  2
 22 19  1
 22 23  1
 22 24  1  6  0
 23 25  1
 25 26  2
 25 27  1
 26 28  1
 27 29  1
 27 30  1
  9 11  1
 20 21  1
 28 29  2
M  END
> <COMPOUND_NAMES>
Example 192 (R) (Page No: 437)

> <Reference>
WO2019148005

> <IC50_range_nM>
301-1000

> <smiles>
C[C@H](Cc1nncn1C)c1cccc(c1)NC(c1cc(cc(C(F)(F)F)n1)OC)=O

$$$$
C22H22F3N5O3
  MOLSOFT 03092310482D

 33 36  0  0  1  0  0  0  0  0999 V2000
    0.0000   -0.0000    0.0000 F   0  0  0
    0.7319   -1.2867    0.0000 C   0  0  0
   -0.5784   -2.0186    0.0000 F   0  0  0
    1.4638   -2.5734    0.0000 F   0  0  0
    2.0186   -0.5312    0.0000 C   0  0  0
    2.0068    0.9798    0.0000 N   0  0  0
    3.3053   -1.2631    0.0000 C   0  0  0
    3.2935    1.7353    0.0000 C   0  0  0
    4.5921   -0.5076    0.0000 C   0  0  0
    3.2817    3.2463    0.0000 C   0  0  0
    4.5803    1.0034    0.0000 C   0  0  0
    5.8788   -1.2395    0.0000 C   0  0  0
    1.9714    4.0018    0.0000 O   0  0  0
    4.5685    4.0018    0.0000 N   0  0  0
    4.5685   -1.9714    0.0000 O   0  0  0
    7.3190   -0.8381    0.0000 C   0  0  0
    6.2565   -2.6797    0.0000 C   0  0  0
    4.5567    5.5128    0.0000 C   0  0  0
    7.6967   -2.2783    0.0000 O   0  0  0
    3.2463    6.2684    0.0000 C   0  0  0
    5.8434    6.2684    0.0000 C   0  0  0
    3.2345    7.7794    0.0000 C   0  0  0
    5.8316    7.7794    0.0000 C   0  0  0
    4.5212    8.5349    0.0000 C   0  0  0
    1.9242    8.5349    0.0000 C   0  0  1
    0.6138    7.8030    0.0000 C   0  0  0
    1.9124   10.0459    0.0000 C   0  0  0
   -0.6965    8.5585    0.0000 C   0  0  0
   -2.0776    7.9564    0.0000 N   0  0  0
   -0.8618   10.0577    0.0000 N   0  0  0
   -3.0929    9.0779    0.0000 N   0  0  0
   -2.3374   10.3764    0.0000 C   0  0  0
    0.2361   11.0729    0.0000 C   0  0  0
  1  2  1
  2  3  1
  2  4  1
  2  5  1
  5  6  2
  5  7  1
  6  8  1
  7  9  2
  8 10  1
  8 11  2
  9 12  1
 10 13  2
 10 14  1
 12 15  1
 12 16  1
 12 17  1
 14 18  1
 16 19  1
 18 20  2
 18 21  1
 20 22  1
 21 23  2
 22 24  2
 25 22  1
 25 26  1
 25 27  1  1  0
 26 28  1
 28 29  2
 28 30  1
 29 31  1
 30 32  1
 30 33  1
  9 11  1
 17 19  1
 23 24  1
 31 32  2
M  END
> <COMPOUND_NAMES>
Example 190 (R) (Page No: 436)

> <Reference>
WO2019148005

> <IC50_range_nM>
101-300

> <smiles>
C[C@H](Cc1nncn1C)c1cccc(c1)NC(c1cc(cc(C(F)(F)F)n1)C1(COC1)O)=O

$$$$
C21H24ClN5O2
  MOLSOFT 03092310482D

 29 31  0  0  1  0  0  0  0  0999 V2000
    0.0000   -0.0000    0.0000 Cl  0  0  0
   -0.0118    1.5069    0.0000 C   0  0  0
    1.2715    2.2604    0.0000 C   0  0  0
   -1.3186    2.2604    0.0000 C   0  0  0
    1.2597    3.7673    0.0000 C   0  0  0
    2.5547    1.5305    0.0000 C   0  0  0
   -1.3303    3.7673    0.0000 N   0  0  0
   -0.0471    4.5208    0.0000 C   0  0  0
    3.2846    2.8372    0.0000 O   0  0  0
    1.8012    0.2472    0.0000 C   0  0  0
    3.8379    0.8006    0.0000 C   0  0  0
   -0.0589    6.0277    0.0000 C   0  0  0
   -1.3656    6.7811    0.0000 O   0  0  0
    1.2244    6.7811    0.0000 N   0  0  0
    1.2126    8.2881    0.0000 C   0  0  0
   -0.0942    9.0415    0.0000 C   0  0  0
    2.4958    9.0415    0.0000 C   0  0  0
   -0.1060   10.5484    0.0000 C   0  0  0
    2.4841   10.5484    0.0000 C   0  0  0
    1.1773   11.3019    0.0000 C   0  0  0
   -1.4127   11.3019    0.0000 C   0  0  1
   -2.7195   10.5720    0.0000 C   0  0  0
   -1.4245   12.8088    0.0000 C   0  0  0
   -4.0263   11.3254    0.0000 C   0  0  0
   -5.4037   10.7250    0.0000 N   0  0  0
   -4.1911   12.8206    0.0000 N   0  0  0
   -6.4162   11.8435    0.0000 N   0  0  0
   -5.6627   13.1385    0.0000 C   0  0  0
   -3.0963   13.8331    0.0000 C   0  0  0
  1  2  1
  2  3  2
  2  4  1
  3  5  1
  3  6  1
  4  7  2
  5  8  2
  6  9  1
  6 10  1
  6 11  1
  8 12  1
 12 13  2
 12 14  1
 14 15  1
 15 16  2
 15 17  1
 16 18  1
 17 19  2
 18 20  2
 21 18  1
 21 22  1
 21 23  1  1  0
 22 24  1
 24 25  2
 24 26  1
 25 27  1
 26 28  1
 26 29  1
  7  8  1
 19 20  1
 27 28  2
M  END
> <COMPOUND_NAMES>
Example 186 (R) (Page No: 434)

> <Reference>
WO2019148005

> <IC50_range_nM>
301-1000

> <smiles>
C[C@H](Cc1nncn1C)c1cccc(c1)NC(c1cc(c(cn1)[Cl])C(C)(C)O)=O

$$$$
C18H17F3N6O
  MOLSOFT 03092310482D

 28 30  0  0  1  0  0  0  0  0999 V2000
    0.0000   -0.0000    0.0000 F   0  0  0
    0.7291    1.3053    0.0000 C   0  0  0
    2.0109    0.5762    0.0000 F   0  0  0
    1.4582    2.6106    0.0000 F   0  0  0
   -0.5762    2.0579    0.0000 C   0  0  0
   -0.5880    3.5631    0.0000 N   0  0  0
   -1.8815    1.3288    0.0000 C   0  0  0
   -1.8933    4.3157    0.0000 C   0  0  0
   -3.1868    2.0814    0.0000 N   0  0  0
   -1.9050    5.8209    0.0000 C   0  0  0
   -3.1986    3.5866    0.0000 C   0  0  0
   -3.2103    6.5735    0.0000 O   0  0  0
   -0.6232    6.5735    0.0000 N   0  0  0
   -0.6350    8.0787    0.0000 C   0  0  0
   -1.9403    8.8313    0.0000 C   0  0  0
    0.6468    8.8313    0.0000 C   0  0  0
   -1.9521   10.3365    0.0000 C   0  0  0
    0.6350   10.3365    0.0000 C   0  0  0
   -0.6703   11.0891    0.0000 C   0  0  0
   -3.2574   11.0891    0.0000 C   0  0  1
   -4.5626   10.3600    0.0000 C   0  0  0
   -3.2691   12.5943    0.0000 C   0  0  0
   -5.8679   11.1126    0.0000 C   0  0  0
   -7.2438   10.5129    0.0000 N   0  0  0
   -6.0326   12.6061    0.0000 N   0  0  0
   -8.2551   11.6300    0.0000 N   0  0  0
   -7.5025   12.9236    0.0000 C   0  0  0
   -4.9389   13.6174    0.0000 C   0  0  0
  1  2  1
  2  3  1
  2  4  1
  2  5  1
  5  6  2
  5  7  1
  6  8  1
  7  9  2
  8 10  1
  8 11  2
 10 12  2
 10 13  1
 13 14  1
 14 15  2
 14 16  1
 15 17  1
 16 18  2
 17 19  2
 20 17  1
 20 21  1
 20 22  1  1  0
 21 23  1
 23 24  2
 23 25  1
 24 26  1
 25 27  1
 25 28  1
  9 11  1
 18 19  1
 26 27  2
M  END
> <COMPOUND_NAMES>
Example 189 (R) (Page No: 435)

> <Reference>
WO2019148005

> <IC50_range_nM>
101-300

> <smiles>
C[C@H](Cc1nncn1C)c1cccc(c1)NC(c1cncc(C(F)(F)F)n1)=O

$$$$
C22H25N5O2
  MOLSOFT 03092310482D

 29 32  0  0  1  0  0  0  0  0999 V2000
    0.0000   -0.0000    0.0000 O   0  0  0
    1.2868   -0.7319    0.0000 C   0  0  0
    2.5736    0.0236    0.0000 N   0  0  0
    1.2750   -2.2194    0.0000 C   0  0  0
    2.5618    1.5347    0.0000 C   0  0  0
    2.5618   -2.9514    0.0000 N   0  0  0
   -0.0354   -2.9514    0.0000 C   0  0  0
    1.2514    2.2902    0.0000 C   0  0  0
    3.8486    2.2902    0.0000 C   0  0  0
    2.5500   -4.4388    0.0000 C   0  0  0
   -0.0472   -4.4388    0.0000 C   0  0  0
    1.2396    3.8013    0.0000 C   0  0  0
    3.8368    3.8013    0.0000 C   0  0  0
    1.2396   -5.1826    0.0000 C   0  0  0
    3.8368   -5.1826    0.0000 C   0  0  0
    2.5264    4.5687    0.0000 C   0  0  0
   -0.0708    4.5687    0.0000 C   0  0  1
    1.2278   -6.6701    0.0000 C   0  0  0
    5.3242   -5.1708    0.0000 C   0  0  0
    4.5687   -6.4694    0.0000 C   0  0  0
   -1.3812    3.8250    0.0000 C   0  0  0
   -0.0826    6.0798    0.0000 C   0  0  0
   -0.0826   -7.4020    0.0000 O   0  0  0
   -2.6916    4.5923    0.0000 C   0  0  0
   -4.0729    3.9902    0.0000 N   0  0  0
   -2.8569    6.0916    0.0000 N   0  0  0
   -5.0881    5.1117    0.0000 N   0  0  0
   -4.3326    6.4103    0.0000 C   0  0  0
   -1.7590    7.1069    0.0000 C   0  0  0
  1  2  2
  2  3  1
  2  4  1
  3  5  1
  4  6  2
  4  7  1
  5  8  2
  5  9  1
  6 10  1
  7 11  2
  8 12  1
  9 13  2
 10 14  2
 10 15  1
 12 16  2
 17 12  1
 14 18  1
 15 19  1
 15 20  1
 17 21  1
 17 22  1  1  0
 18 23  1
 21 24  1
 24 25  2
 24 26  1
 25 27  1
 26 28  1
 26 29  1
 11 14  1
 13 16  1
 19 20  1
 27 28  2
M  END
> <COMPOUND_NAMES>
Example 203 (R) (Page No: 444)

> <Reference>
WO2019148005

> <IC50_range_nM>
<100

> <smiles>
C[C@H](Cc1nncn1C)c1cccc(c1)NC(c1ccc(CO)c(C2CC2)n1)=O

$$$$
C23H28N6O
  MOLSOFT 03092310482D

 30 33  0  0  1  0  0  0  0  0999 V2000
    0.0000   -0.0000    0.0000 O   0  0  0
    1.2894    0.7571    0.0000 C   0  0  0
    1.2776    2.2712    0.0000 N   0  0  0
    2.5788    0.0237    0.0000 C   0  0  0
   -0.0355    3.0283    0.0000 C   0  0  0
    2.5670   -1.4668    0.0000 N   0  0  0
    3.8682    0.7807    0.0000 C   0  0  0
   -1.3485    2.2949    0.0000 C   0  0  0
   -0.0473    4.5424    0.0000 C   0  0  0
    3.8563   -2.2002    0.0000 C   0  0  0
    5.1576    0.0473    0.0000 C   0  0  0
   -2.6616    3.0520    0.0000 C   0  0  0
   -1.3604    5.2995    0.0000 C   0  0  0
    5.1457   -1.4432    0.0000 C   0  0  0
    3.8445   -3.6907    0.0000 C   0  0  0
   -2.6734    4.5661    0.0000 C   0  0  0
   -3.9746    2.3185    0.0000 C   0  0  1
    6.4351   -2.1766    0.0000 C   0  0  0
    4.5779   -4.9801    0.0000 C   0  0  0
    3.0756   -4.9801    0.0000 C   0  0  0
   -5.2877    3.0756    0.0000 C   0  0  0
   -3.9865    0.8280    0.0000 C   0  0  0
    7.7245   -1.4195    0.0000 N   0  0  0
   -6.6007    2.3422    0.0000 C   0  0  0
    9.0139   -2.1529    0.0000 C   0  0  0
   -6.7663    0.8635    0.0000 N   0  0  0
   -7.9848    2.9691    0.0000 N   0  0  0
   -8.2450    0.5678    0.0000 N   0  0  0
   -9.0021    1.8690    0.0000 C   0  0  0
   -8.3042    4.4478    0.0000 C   0  0  0
  1  2  2
  2  3  1
  2  4  1
  3  5  1
  4  6  2
  4  7  1
  5  8  2
  5  9  1
  6 10  1
  7 11  2
  8 12  1
  9 13  2
 10 14  2
 10 15  1
 12 16  2
 17 12  1
 14 18  1
 15 19  1
 15 20  1
 17 21  1
 17 22  1  6  0
 18 23  1
 21 24  1
 23 25  1
 24 26  2
 24 27  1
 26 28  1
 27 29  1
 27 30  1
 11 14  1
 13 16  1
 19 20  1
 28 29  2
M  END
> <COMPOUND_NAMES>
Example 376 (R) (Page No: 556)

> <Reference>
WO2019148005

> <IC50_range_nM>
101-300

> <smiles>
C[C@H](Cc1nncn1C)c1cccc(c1)NC(c1ccc(CNC)c(C2CC2)n1)=O

$$$$
C22H25N5O2
  MOLSOFT 03092310482D

 29 32  0  0  1  0  0  0  0  0999 V2000
    0.0000   -0.0000    0.0000 O   0  0  0
    1.2884   -0.7329    0.0000 C   0  0  0
    2.5768    0.0236    0.0000 N   0  0  0
    1.2766   -2.2222    0.0000 C   0  0  0
    2.5650    1.5366    0.0000 C   0  0  0
    2.5650   -2.9551    0.0000 N   0  0  0
   -0.0355   -2.9551    0.0000 C   0  0  0
    1.2530    2.2931    0.0000 C   0  0  0
    3.8534    2.2931    0.0000 C   0  0  0
    2.5532   -4.4444    0.0000 C   0  0  0
   -0.0473   -4.4444    0.0000 C   0  0  0
    1.2411    3.8061    0.0000 C   0  0  0
    3.8416    3.8061    0.0000 C   0  0  0
    1.2411   -5.1773    0.0000 C   0  0  0
    3.8416   -5.1773    0.0000 C   0  0  0
    2.5295    4.5626    0.0000 C   0  0  0
   -0.0709    4.5626    0.0000 C   0  0  1
    1.2293   -6.6667    0.0000 C   0  0  0
    5.3310   -5.1655    0.0000 C   0  0  0
    4.5745   -6.4657    0.0000 C   0  0  0
   -1.3830    3.8298    0.0000 C   0  0  2
   -0.0827    6.0756    0.0000 C   0  0  0
   -1.3948    2.3404    0.0000 O   0  0  0
   -2.6950    4.5863    0.0000 C   0  0  0
   -4.0780    3.9834    0.0000 N   0  0  0
   -2.8605    6.0875    0.0000 N   0  0  0
   -5.0946    5.1064    0.0000 N   0  0  0
   -4.3381    6.4066    0.0000 C   0  0  0
   -1.7612    7.1040    0.0000 C   0  0  0
  1  2  2
  2  3  1
  2  4  1
  3  5  1
  4  6  2
  4  7  1
  5  8  2
  5  9  1
  6 10  1
  7 11  2
  8 12  1
  9 13  2
 10 14  2
 10 15  1
 12 16  2
 17 12  1
 14 18  1
 15 19  1
 15 20  1
 17 21  1
 17 22  1  1  0
 21 23  1  6  0
 21 24  1
 24 25  2
 24 26  1
 25 27  1
 26 28  1
 26 29  1
 11 14  1
 13 16  1
 19 20  1
 27 28  2
M  END
> <COMPOUND_NAMES>
Example 288 (trans) (Page No: 496)

> <Reference>
WO2019148005

> <IC50_range_nM>
3001-10000

> <smiles>
Cc1ccc(C(Nc2cccc(c2)[C@H](C)[C@@H](c2nncn2C)O)=O)nc1C1CC1

$$$$
C22H23F2N5O
  MOLSOFT 03092310482D

 30 33  0  0  1  0  0  0  0  0999 V2000
    0.0000   -0.0000    0.0000 F   0  0  0
    1.4520   -0.3044    0.0000 C   0  0  0
    2.9039   -0.6089    0.0000 F   0  0  0
    1.1241   -1.7564    0.0000 C   0  0  0
    1.7564    1.1709    0.0000 C   0  0  1
    2.1077   -2.8571    0.0000 N   0  0  0
   -0.2576   -2.3536    0.0000 N   0  0  0
    0.6323    2.1779    0.0000 C   0  0  0
    3.1615    1.6393    0.0000 C   0  0  0
    1.3466   -4.1451    0.0000 N   0  0  0
   -0.1171   -3.8289    0.0000 C   0  0  0
   -1.5690   -1.5925    0.0000 C   0  0  0
    0.9367    3.6533    0.0000 C   0  0  0
   -0.7962    1.7330    0.0000 C   0  0  0
   -0.1873    4.6720    0.0000 C   0  0  0
   -1.9203    2.7517    0.0000 C   0  0  0
    0.1171    6.1474    0.0000 N   0  0  0
   -1.6159    4.2271    0.0000 C   0  0  0
    1.5222    6.6275    0.0000 C   0  0  0
    2.6229    5.6322    0.0000 O   0  0  0
    1.8267    8.1028    0.0000 C   0  0  0
    0.7026    9.1216    0.0000 N   0  0  0
    3.2318    8.5712    0.0000 C   0  0  0
    1.0070   10.5969    0.0000 C   0  0  0
    3.5362   10.0466    0.0000 C   0  0  0
    2.4238   11.0770    0.0000 C   0  0  0
   -0.1171   11.6156    0.0000 C   0  0  0
    2.7283   12.5524    0.0000 C   0  0  0
   -1.5925   11.9435    0.0000 C   0  0  0
   -0.5855   13.0442    0.0000 C   0  0  0
  1  2  1
  2  3  1
  2  4  1
  5  2  1
  4  6  2
  4  7  1
  5  8  1
  5  9  1  1  0
  6 10  1
  7 11  1
  7 12  1
  8 13  2
  8 14  1
 13 15  1
 14 16  2
 15 17  1
 15 18  2
 17 19  1
 19 20  2
 19 21  1
 21 22  2
 21 23  1
 22 24  1
 23 25  2
 24 26  2
 24 27  1
 26 28  1
 27 29  1
 27 30  1
 10 11  2
 16 18  1
 25 26  1
 29 30  1
M  END
> <COMPOUND_NAMES>
Example 286 (+/-) (Page No: 495)

> <Reference>
WO2019148005

> <IC50_range_nM>
101-300

> <smiles>
Cc1ccc(C(Nc2cccc(c2)[C@@H](C)C(c2nncn2C)(F)F)=O)nc1C1CC1

$$$$
C22H23F2N5O2
  MOLSOFT 03092310482D

 31 34  0  0  1  0  0  0  0  0999 V2000
    0.0000   -0.0000    0.0000 F   0  0  0
    1.4525   -0.3046    0.0000 C   0  0  0
    2.9050   -0.6091    0.0000 F   0  0  0
    1.1245   -1.7570    0.0000 C   0  0  0
    1.7570    1.1714    0.0000 C   0  0  1
    2.1085   -2.8581    0.0000 N   0  0  0
   -0.2577   -2.3544    0.0000 N   0  0  0
    0.6325    2.1787    0.0000 C   0  0  0
    3.1627    1.6399    0.0000 C   0  0  0
    1.3471   -4.1466    0.0000 N   0  0  0
   -0.1171   -3.8304    0.0000 C   0  0  0
   -1.5696   -1.5931    0.0000 C   0  0  0
    0.9371    3.6547    0.0000 C   0  0  0
   -0.7965    1.7336    0.0000 C   0  0  0
   -0.1874    4.6737    0.0000 C   0  0  0
   -1.9210    2.7527    0.0000 C   0  0  0
    0.1171    6.1497    0.0000 N   0  0  0
   -1.6165    4.2286    0.0000 C   0  0  0
    1.5228    6.6299    0.0000 C   0  0  0
    2.6239    5.6343    0.0000 O   0  0  0
    1.8273    8.1058    0.0000 C   0  0  0
    0.7028    9.1249    0.0000 N   0  0  0
    3.2330    8.5744    0.0000 C   0  0  0
    1.0074   10.6008    0.0000 C   0  0  0
    3.5375   10.0503    0.0000 C   0  0  0
    2.4247   11.0811    0.0000 C   0  0  0
   -0.1171   11.6199    0.0000 C   0  0  0
    2.7293   12.5570    0.0000 C   0  0  0
   -1.5931   11.9479    0.0000 C   0  0  0
   -0.5857   13.0490    0.0000 C   0  0  0
    4.1349   13.0256    0.0000 O   0  0  0
  1  2  1
  2  3  1
  2  4  1
  5  2  1
  4  6  2
  4  7  1
  5  8  1
  5  9  1  1  0
  6 10  1
  7 11  1
  7 12  1
  8 13  2
  8 14  1
 13 15  1
 14 16  2
 15 17  1
 15 18  2
 17 19  1
 19 20  2
 19 21  1
 21 22  2
 21 23  1
 22 24  1
 23 25  2
 24 26  2
 24 27  1
 26 28  1
 27 29  1
 27 30  1
 28 31  1
 10 11  2
 16 18  1
 25 26  1
 29 30  1
M  END
> <COMPOUND_NAMES>
Example 287 (+/-) (Page No: 495)

> <Reference>
WO2019148005

> <IC50_range_nM>
101-300

> <smiles>
C[C@H](c1cccc(c1)NC(c1ccc(CO)c(C2CC2)n1)=O)C(c1nncn1C)(F)F

$$$$
C22H25N5O3S
  MOLSOFT 03092310482D

 31 34  0  0  1  0  0  0  0  0999 V2000
    0.0000   -0.0000    0.0000 S   0  0  0
   -1.3095   -0.7314    0.0000 O   0  0  0
    0.7314   -1.2859    0.0000 O   0  0  0
    1.2859    0.7550    0.0000 C   0  0  0
   -0.7550    1.3095    0.0000 C   0  0  0
    1.2741    2.2650    0.0000 C   0  0  0
    2.5718    0.0236    0.0000 C   0  0  0
    2.5600    3.0200    0.0000 C   0  0  0
    3.8576    0.7786    0.0000 C   0  0  0
    3.8458    2.2886    0.0000 N   0  0  0
    2.5482    4.5301    0.0000 C   0  0  0
    5.1435    0.0472    0.0000 C   0  0  0
    1.2387    5.2851    0.0000 O   0  0  0
    3.8340    5.2851    0.0000 N   0  0  0
    6.6299    0.0590    0.0000 C   0  0  0
    5.8749   -1.2387    0.0000 C   0  0  0
    3.8222    6.7951    0.0000 C   0  0  0
    2.5128    7.5501    0.0000 C   0  0  0
    5.1081    7.5501    0.0000 C   0  0  0
    2.5010    9.0601    0.0000 C   0  0  0
    5.0963    9.0601    0.0000 C   0  0  0
    3.7869    9.8152    0.0000 C   0  0  0
    1.1915    9.8152    0.0000 C   0  0  1
   -0.1180    9.0837    0.0000 C   0  0  0
    1.1797   11.3252    0.0000 C   0  0  0
   -1.4274    9.8388    0.0000 C   0  0  0
   -2.8077    9.2371    0.0000 N   0  0  0
   -1.5926   11.3370    0.0000 N   0  0  0
   -3.8222   10.3578    0.0000 N   0  0  0
   -3.0672   11.6555    0.0000 C   0  0  0
   -0.4955   12.3515    0.0000 C   0  0  0
  1  2  2
  1  3  2
  1  4  1
  1  5  1
  4  6  2
  4  7  1
  6  8  1
  7  9  2
  8 10  2
  8 11  1
  9 12  1
 11 13  2
 11 14  1
 12 15  1
 12 16  1
 14 17  1
 17 18  2
 17 19  1
 18 20  1
 19 21  2
 20 22  2
 23 20  1
 23 24  1
 23 25  1  1  0
 24 26  1
 26 27  2
 26 28  1
 27 29  1
 28 30  1
 28 31  1
  9 10  1
 15 16  1
 21 22  1
 29 30  2
M  END
> <COMPOUND_NAMES>
Example 198 (R) (Page No: 440)

> <Reference>
WO2019148005

> <IC50_range_nM>
101-300

> <smiles>
C[C@H](Cc1nncn1C)c1cccc(c1)NC(c1cc(cc(C2CC2)n1)S(C)(=O)=O)=O

$$$$
C22H25N5O3S
  MOLSOFT 03092310482D

 31 34  0  0  1  0  0  0  0  0999 V2000
    0.0000   -0.0000    0.0000 S   0  0  0
   -1.3095   -0.7314    0.0000 O   0  0  0
    0.7314   -1.2859    0.0000 O   0  0  0
    1.2859    0.7550    0.0000 C   0  0  0
   -0.7550    1.3095    0.0000 C   0  0  0
    1.2741    2.2650    0.0000 C   0  0  0
    2.5718    0.0236    0.0000 C   0  0  0
    2.5600    3.0200    0.0000 C   0  0  0
    3.8576    0.7786    0.0000 C   0  0  0
    3.8458    2.2886    0.0000 N   0  0  0
    2.5482    4.5301    0.0000 C   0  0  0
    5.1435    0.0472    0.0000 C   0  0  0
    1.2387    5.2851    0.0000 O   0  0  0
    3.8340    5.2851    0.0000 N   0  0  0
    6.6299    0.0590    0.0000 C   0  0  0
    5.8749   -1.2387    0.0000 C   0  0  0
    3.8222    6.7951    0.0000 C   0  0  0
    2.5128    7.5501    0.0000 C   0  0  0
    5.1081    7.5501    0.0000 C   0  0  0
    2.5010    9.0601    0.0000 C   0  0  0
    5.0963    9.0601    0.0000 C   0  0  0
    3.7869    9.8152    0.0000 C   0  0  0
    1.1915    9.8152    0.0000 C   0  0  2
   -0.1180    9.0837    0.0000 C   0  0  0
    1.1797   11.3252    0.0000 C   0  0  0
   -1.4274    9.8388    0.0000 C   0  0  0
   -2.8077    9.2371    0.0000 N   0  0  0
   -1.5926   11.3370    0.0000 N   0  0  0
   -3.8222   10.3578    0.0000 N   0  0  0
   -3.0672   11.6555    0.0000 C   0  0  0
   -0.4955   12.3515    0.0000 C   0  0  0
  1  2  2
  1  3  2
  1  4  1
  1  5  1
  4  6  2
  4  7  1
  6  8  1
  7  9  2
  8 10  2
  8 11  1
  9 12  1
 11 13  2
 11 14  1
 12 15  1
 12 16  1
 14 17  1
 17 18  2
 17 19  1
 18 20  1
 19 21  2
 20 22  2
 23 20  1
 23 24  1
 23 25  1  6  0
 24 26  1
 26 27  2
 26 28  1
 27 29  1
 28 30  1
 28 31  1
  9 10  1
 15 16  1
 21 22  1
 29 30  2
M  END
> <COMPOUND_NAMES>
Example 198b (S) (Page No: 72, Table No: 1)

> <Reference>
WO2019148005

> <IC50_range_nM>
3001-10000

> <smiles>
C[C@@H](Cc1nncn1C)c1cccc(c1)NC(c1cc(cc(C2CC2)n1)S(C)(=O)=O)=O

$$$$
C19H19F3N6O3S
  MOLSOFT 03092310482D

 32 34  0  0  1  0  0  0  0  0999 V2000
    0.0000   -0.0000    0.0000 S   0  0  0
    1.2827   -0.7296    0.0000 O   0  0  0
    0.7296    1.3062    0.0000 O   0  0  0
   -0.7532   -1.2827    0.0000 N   0  0  0
   -1.3062    0.7532    0.0000 C   0  0  0
   -1.3180    2.2595    0.0000 C   0  0  0
   -2.6125    0.0235    0.0000 C   0  0  0
   -2.6243    3.0126    0.0000 C   0  0  0
   -3.9187    0.7767    0.0000 C   0  0  0
   -3.9305    2.2830    0.0000 N   0  0  0
   -2.6360    4.5189    0.0000 C   0  0  0
   -5.2250    0.0471    0.0000 C   0  0  0
   -3.9423    5.2721    0.0000 O   0  0  0
   -1.3533    5.2721    0.0000 N   0  0  0
   -5.9781    1.3533    0.0000 F   0  0  0
   -6.5312   -0.6825    0.0000 F   0  0  0
   -4.4954   -1.2356    0.0000 F   0  0  0
   -1.3651    6.7784    0.0000 C   0  0  0
   -2.6713    7.5315    0.0000 C   0  0  0
   -0.0824    7.5315    0.0000 C   0  0  0
   -2.6831    9.0378    0.0000 C   0  0  0
   -0.0941    9.0378    0.0000 C   0  0  0
   -1.4004    9.7910    0.0000 C   0  0  0
   -3.9893    9.7910    0.0000 C   0  0  1
   -5.2956    9.0613    0.0000 C   0  0  0
   -4.0011   11.2973    0.0000 C   0  0  0
   -6.6018    9.8145    0.0000 C   0  0  0
   -7.9787    9.2143    0.0000 N   0  0  0
   -6.7666   11.3090    0.0000 N   0  0  0
   -8.9907   10.3323    0.0000 N   0  0  0
   -8.2376   11.6268    0.0000 C   0  0  0
   -5.6722   12.3211    0.0000 C   0  0  0
  1  2  2
  1  3  2
  1  4  1
  1  5  1
  5  6  2
  5  7  1
  6  8  1
  7  9  2
  8 10  2
  8 11  1
  9 12  1
 11 13  2
 11 14  1
 12 15  1
 12 16  1
 12 17  1
 14 18  1
 18 19  2
 18 20  1
 19 21  1
 20 22  2
 21 23  2
 24 21  1
 24 25  1
 24 26  1  1  0
 25 27  1
 27 28  2
 27 29  1
 28 30  1
 29 31  1
 29 32  1
  9 10  1
 22 23  1
 30 31  2
M  END
> <COMPOUND_NAMES>
Example 200 (R) (Page No: 441)

> <Reference>
WO2019148005

> <IC50_range_nM>
101-300

> <smiles>
C[C@H](Cc1nncn1C)c1cccc(c1)NC(c1cc(cc(C(F)(F)F)n1)S(N)(=O)=O)=O

$$$$
C20H21F3N6O3S
  MOLSOFT 03092310482D

 33 35  0  0  1  0  0  0  0  0999 V2000
    0.0000   -0.0000    0.0000 S   0  0  0
    0.7351   -1.2923    0.0000 O   0  0  0
   -0.7588    1.3160    0.0000 O   0  0  0
   -1.3160   -0.7469    0.0000 N   0  0  0
    1.2923    0.7588    0.0000 C   0  0  0
   -1.3279   -2.2408    0.0000 C   0  0  0
    2.5846    0.0237    0.0000 C   0  0  0
    1.2805    2.2764    0.0000 C   0  0  0
    3.8770    0.7825    0.0000 C   0  0  0
    2.5728    3.0352    0.0000 C   0  0  0
    3.8651    2.3001    0.0000 N   0  0  0
    5.1693    0.0474    0.0000 C   0  0  0
    2.5609    4.5528    0.0000 C   0  0  0
    6.4616    0.8062    0.0000 O   0  0  0
    5.1574   -1.4465    0.0000 N   0  0  0
    2.5491    6.0704    0.0000 F   0  0  0
    4.0548    4.5646    0.0000 F   0  0  0
    1.0433    4.5646    0.0000 F   0  0  0
    6.4498   -2.1934    0.0000 C   0  0  0
    7.7421   -1.4346    0.0000 C   0  0  0
    6.4379   -3.6873    0.0000 C   0  0  0
    9.0344   -2.1815    0.0000 C   0  0  0
    7.7302   -4.4224    0.0000 C   0  0  0
    9.0225   -3.6754    0.0000 C   0  0  0
   10.3267   -1.4227    0.0000 C   0  0  1
   11.6190   -2.1697    0.0000 C   0  0  0
   10.3149    0.0948    0.0000 C   0  0  0
   12.9114   -1.4109    0.0000 C   0  0  0
   13.0536    0.0948    0.0000 N   0  0  0
   14.2748   -2.0155    0.0000 N   0  0  0
   14.5120    0.4150    0.0000 N   0  0  0
   15.2707   -0.8892    0.0000 C   0  0  0
   14.5712   -3.4739    0.0000 C   0  0  0
  1  2  2
  1  3  2
  1  4  1
  1  5  1
  4  6  1
  5  7  2
  5  8  1
  7  9  1
  8 10  2
  9 11  2
  9 12  1
 10 13  1
 12 14  2
 12 15  1
 13 16  1
 13 17  1
 13 18  1
 15 19  1
 19 20  2
 19 21  1
 20 22  1
 21 23  2
 22 24  2
 25 22  1
 25 26  1
 25 27  1  6  0
 26 28  1
 28 29  2
 28 30  1
 29 31  1
 30 32  1
 30 33  1
 10 11  1
 23 24  1
 31 32  2
M  END
> <COMPOUND_NAMES>
Example 201 (R) (Page No: 442)

> <Reference>
WO2019148005

> <IC50_range_nM>
101-300

> <smiles>
C[C@H](Cc1nncn1C)c1cccc(c1)NC(c1cc(cc(C(F)(F)F)n1)S(NC)(=O)=O)=O

$$$$
C19H21N5O3S
  MOLSOFT 03092310482D

 28 30  0  0  1  0  0  0  0  0999 V2000
    0.0000   -0.0000    0.0000 S   0  0  0
    1.2820   -0.7292    0.0000 O   0  0  0
    0.7292    1.3055    0.0000 O   0  0  0
   -1.3055    0.7527    0.0000 C   0  0  0
   -0.7527   -1.2820    0.0000 C   0  0  0
   -1.3173    2.2582    0.0000 N   0  0  0
   -2.6111    0.0235    0.0000 C   0  0  0
   -2.6229    3.0110    0.0000 C   0  0  0
   -3.9166    0.7763    0.0000 C   0  0  0
   -2.6346    4.5165    0.0000 C   0  0  0
   -3.9284    2.2818    0.0000 C   0  0  0
   -3.9402    5.2692    0.0000 O   0  0  0
   -1.3526    5.2692    0.0000 N   0  0  0
   -1.3644    6.7747    0.0000 C   0  0  0
   -2.6699    7.5275    0.0000 C   0  0  0
   -0.0823    7.5275    0.0000 C   0  0  0
   -2.6817    9.0330    0.0000 C   0  0  0
   -0.0941    9.0330    0.0000 C   0  0  0
   -1.3996    9.7857    0.0000 C   0  0  0
   -3.9872    9.7857    0.0000 C   0  0  1
   -5.2928    9.0565    0.0000 C   0  0  0
   -3.9990   11.2912    0.0000 C   0  0  0
   -6.5983    9.8092    0.0000 C   0  0  0
   -7.9744    9.2094    0.0000 N   0  0  0
   -6.7630   11.3030    0.0000 N   0  0  0
   -8.9859   10.3268    0.0000 N   0  0  0
   -8.2332   11.6205    0.0000 C   0  0  0
   -5.6691   12.3145    0.0000 C   0  0  0
  1  2  2
  1  3  2
  1  4  1
  1  5  1
  4  6  2
  4  7  1
  6  8  1
  7  9  2
  8 10  1
  8 11  2
 10 12  2
 10 13  1
 13 14  1
 14 15  2
 14 16  1
 15 17  1
 16 18  2
 17 19  2
 20 17  1
 20 21  1
 20 22  1  1  0
 21 23  1
 23 24  2
 23 25  1
 24 26  1
 25 27  1
 25 28  1
  9 11  1
 18 19  1
 26 27  2
M  END
> <COMPOUND_NAMES>
Example 185 (R) (Page No: 434)

> <Reference>
WO2019148005

> <IC50_range_nM>
301-1000

> <smiles>
C[C@H](Cc1nncn1C)c1cccc(c1)NC(c1cccc(n1)S(C)(=O)=O)=O

$$$$
C20H22N6O
  MOLSOFT 03092310482D

 27 30  0  0  1  0  0  0  0  0999 V2000
    0.0000   -0.0000    0.0000 O   0  0  0
    1.2878   -0.7325    0.0000 C   0  0  0
    2.5756    0.0236    0.0000 N   0  0  0
    1.2760   -2.2212    0.0000 C   0  0  0
    2.5638    1.5359    0.0000 C   0  0  0
    2.5638   -2.9537    0.0000 N   0  0  0
   -0.0354   -2.9537    0.0000 C   0  0  0
    1.2524    2.2921    0.0000 C   0  0  0
    3.8516    2.2921    0.0000 C   0  0  0
    2.5520   -4.4424    0.0000 C   0  0  0
   -0.0473   -4.4424    0.0000 C   0  0  0
    1.2406    3.8044    0.0000 C   0  0  0
    3.8398    3.8044    0.0000 C   0  0  0
    1.2406   -5.1749    0.0000 N   0  0  0
    3.8398   -5.1749    0.0000 C   0  0  0
    2.5284    4.5605    0.0000 C   0  0  0
   -0.0709    4.5605    0.0000 C   0  0  1
    5.3285   -5.1631    0.0000 C   0  0  0
    4.5723   -6.4627    0.0000 C   0  0  0
   -1.3823    3.8280    0.0000 C   0  0  0
   -0.0827    6.0728    0.0000 C   0  0  0
   -2.6938    4.5841    0.0000 C   0  0  0
   -4.0761    3.9816    0.0000 N   0  0  0
   -2.8592    6.0846    0.0000 N   0  0  0
   -5.0922    5.1040    0.0000 N   0  0  0
   -4.3360    6.4036    0.0000 C   0  0  0
   -1.7604    7.1007    0.0000 C   0  0  0
  1  2  2
  2  3  1
  2  4  1
  3  5  1
  4  6  2
  4  7  1
  5  8  2
  5  9  1
  6 10  1
  7 11  2
  8 12  1
  9 13  2
 10 14  2
 10 15  1
 12 16  2
 17 12  1
 15 18  1
 15 19  1
 17 20  1
 17 21  1  1  0
 20 22  1
 22 23  2
 22 24  1
 23 25  1
 24 26  1
 24 27  1
 11 14  1
 13 16  1
 18 19  1
 25 26  2
M  END
> <COMPOUND_NAMES>
Example 199 (R) (Page No: 441)

> <Reference>
WO2019148005

> <IC50_range_nM>
<100

> <smiles>
C[C@H](Cc1nncn1C)c1cccc(c1)NC(c1ccnc(C2CC2)n1)=O

$$$$
C21H22N6O
  MOLSOFT 03092310482D

 28 32  0  0  1  0  0  0  0  0999 V2000
    0.0000   -0.0000    0.0000 O   0  0  0
    1.2887   -0.7330    0.0000 C   0  0  0
    2.5775    0.0236    0.0000 N   0  0  0
    1.2769   -2.2228    0.0000 C   0  0  0
    2.5657    1.5370    0.0000 C   0  0  0
    2.5657   -2.9676    0.0000 N   0  0  0
   -0.0355   -2.9676    0.0000 C   0  0  0
    1.2533    2.2937    0.0000 C   0  0  0
    3.8544    2.2937    0.0000 C   0  0  0
    2.5538   -4.4574    0.0000 C   0  0  0
   -0.0473   -4.4574    0.0000 C   0  0  0
    1.2414    3.8071    0.0000 C   0  0  0
    3.8426    3.8071    0.0000 C   0  0  0
    1.2414   -5.1904    0.0000 N   0  0  0
    3.8426   -5.1904    0.0000 C   0  0  0
   -1.3597   -5.1904    0.0000 C   0  0  0
    2.5302    4.5638    0.0000 C   0  0  0
   -0.0709    4.5638    0.0000 C   0  0  2
    5.3323   -5.1786    0.0000 C   0  0  0
    4.5756   -6.4792    0.0000 C   0  0  0
   -1.5843    4.5756    0.0000 C   0  0  1
   -0.8276    5.8762    0.0000 C   0  0  0
   -2.8967    3.8426    0.0000 C   0  0  0
   -4.2800    4.4692    0.0000 N   0  0  0
   -3.0622    2.3647    0.0000 N   0  0  0
   -5.2968    3.3696    0.0000 N   0  0  0
   -4.5401    2.0691    0.0000 C   0  0  0
   -1.9627    1.3715    0.0000 C   0  0  0
  1  2  2
  2  3  1
  2  4  1
  3  5  1
  4  6  2
  4  7  1
  5  8  2
  5  9  1
  6 10  1
  7 11  2
  8 12  1
  9 13  2
 10 14  2
 10 15  1
 11 16  1
 12 17  2
 18 12  1  6  0
 15 19  1
 15 20  1
 18 21  1
 18 22  1
 21 23  1  6  0
 23 24  2
 23 25  1
 24 26  1
 25 27  1
 25 28  1
 11 14  1
 13 17  1
 19 20  1
 21 22  1
 26 27  2
M  END
> <COMPOUND_NAMES>
Example 333 (Stereo) (Page No: 528)

> <Reference>
WO2019148005

> <IC50_range_nM>
101-300

> <smiles>
Cc1cc(C(Nc2cccc(c2)[C@H]2C[C@H]2c2nncn2C)=O)nc(C2CC2)n1

$$$$
C22H26N6O
  MOLSOFT 03092310482D

 29 32  0  0  0  0  0  0  0  0999 V2000
    0.0000   -0.0000    0.0000 O   0  0  0
    1.2880   -0.7326    0.0000 C   0  0  0
    2.5760    0.0236    0.0000 N   0  0  0
    1.2762   -2.2215    0.0000 C   0  0  0
    2.5642    1.5362    0.0000 C   0  0  0
   -0.0355   -2.9660    0.0000 N   0  0  0
    2.5642   -2.9660    0.0000 C   0  0  0
    1.2526    2.2924    0.0000 C   0  0  0
    3.8522    2.2924    0.0000 C   0  0  0
   -0.0473   -4.4549    0.0000 C   0  0  0
    2.5524   -4.4549    0.0000 C   0  0  0
    1.2408    3.8050    0.0000 C   0  0  0
    3.8404    3.8050    0.0000 C   0  0  0
    1.2408   -5.1875    0.0000 N   0  0  0
   -1.3589   -5.1875    0.0000 C   0  0  0
    3.8404   -5.1875    0.0000 C   0  0  0
    2.5288    4.5612    0.0000 C   0  0  0
   -0.0709    4.5612    0.0000 C   0  0  0
   -2.1152   -6.4756    0.0000 C   0  0  0
   -2.8715   -5.1757    0.0000 C   0  0  0
   -1.3826    5.3293    0.0000 C   0  0  0
   -0.8272    3.2732    0.0000 C   0  0  0
    0.6617    5.8729    0.0000 C   0  0  0
   -2.6942    4.5849    0.0000 C   0  0  0
   -4.0768    5.2112    0.0000 N   0  0  0
   -2.8596    3.1078    0.0000 N   0  0  0
   -5.0930    4.1122    0.0000 N   0  0  0
   -4.3367    2.8124    0.0000 C   0  0  0
   -1.7607    2.1152    0.0000 C   0  0  0
  1  2  2
  2  3  1
  2  4  1
  3  5  1
  4  6  2
  4  7  1
  5  8  2
  5  9  1
  6 10  1
  7 11  2
  8 12  1
  9 13  2
 10 14  2
 10 15  1
 11 16  1
 12 17  2
 12 18  1
 15 19  1
 15 20  1
 18 21  1
 18 22  1
 18 23  1
 21 24  1
 24 25  2
 24 26  1
 25 27  1
 26 28  1
 26 29  1
 11 14  1
 13 17  1
 19 20  1
 27 28  2
M  END
> <COMPOUND_NAMES>
Example 511 (Page No: 652)

> <Reference>
WO2019148005

> <IC50_range_nM>
<100

> <smiles>
Cc1cc(C(Nc2cccc(c2)C(C)(C)Cc2nncn2C)=O)nc(C2CC2)n1

$$$$
C23H26N6O
  MOLSOFT 03092310482D

 30 34  0  0  0  0  0  0  0  0999 V2000
    0.0000   -0.0000    0.0000 O   0  0  0
    1.2846   -0.7307    0.0000 C   0  0  0
    2.5692    0.0236    0.0000 N   0  0  0
    1.2728   -2.2156    0.0000 C   0  0  0
    2.5574    1.5321    0.0000 C   0  0  0
   -0.0354   -2.9581    0.0000 N   0  0  0
    2.5574   -2.9581    0.0000 C   0  0  0
    1.2492    2.2863    0.0000 C   0  0  0
    3.8420    2.2863    0.0000 C   0  0  0
   -0.0471   -4.4430    0.0000 C   0  0  0
    2.5456   -4.4430    0.0000 C   0  0  0
    1.2375    3.7949    0.0000 C   0  0  0
    3.8302    3.7949    0.0000 C   0  0  0
    1.2375   -5.1737    0.0000 N   0  0  0
   -1.3553   -5.1737    0.0000 C   0  0  0
    3.8302   -5.1737    0.0000 C   0  0  0
    2.5220    4.5491    0.0000 C   0  0  0
   -0.0707    4.5491    0.0000 C   0  0  0
   -2.1096   -6.4583    0.0000 C   0  0  0
   -2.8638   -5.1619    0.0000 C   0  0  0
   -1.5321    4.1720    0.0000 C   0  0  0
   -0.4714    6.0105    0.0000 C   0  0  0
    1.2139    5.3151    0.0000 C   0  0  0
   -1.9328    5.6333    0.0000 C   0  0  0
    1.2021    6.8237    0.0000 C   0  0  0
    2.4042    7.7193    0.0000 N   0  0  0
   -0.0236    7.7193    0.0000 N   0  0  0
    1.9328    9.1571    0.0000 N   0  0  0
    0.4243    9.1571    0.0000 C   0  0  0
   -1.4614    7.2715    0.0000 C   0  0  0
  1  2  2
  2  3  1
  2  4  1
  3  5  1
  4  6  2
  4  7  1
  5  8  2
  5  9  1
  6 10  1
  7 11  2
  8 12  1
  9 13  2
 10 14  2
 10 15  1
 11 16  1
 12 17  2
 12 18  1
 15 19  1
 15 20  1
 18 21  1
 18 22  1
 18 23  1
 21 24  1
 23 25  1
 25 26  2
 25 27  1
 26 28  1
 27 29  1
 27 30  1
 11 14  1
 13 17  1
 19 20  1
 22 24  1
 28 29  2
M  END
> <COMPOUND_NAMES>
Example 694 (Page No: 771)

> <Reference>
WO2019148005

> <IC50_range_nM>
<100

> <smiles>
Cc1cc(C(Nc2cccc(c2)C2(CCC2)Cc2nncn2C)=O)nc(C2CC2)n1

$$$$
C21H24N6O
  MOLSOFT 03092310482D

 28 31  0  0  1  0  0  0  0  0999 V2000
    0.0000   -0.0000    0.0000 O   0  0  0
    1.2877   -0.7325    0.0000 C   0  0  0
    2.5755    0.0236    0.0000 N   0  0  0
    1.2759   -2.2211    0.0000 C   0  0  0
    2.5637    1.5358    0.0000 C   0  0  0
    2.5637   -2.9536    0.0000 N   0  0  0
   -0.0354   -2.9536    0.0000 C   0  0  0
    1.2523    2.2920    0.0000 C   0  0  0
    3.8514    2.2920    0.0000 C   0  0  0
    2.5519   -4.4421    0.0000 C   0  0  0
   -0.0473   -4.4421    0.0000 C   0  0  0
    1.2405    3.8042    0.0000 C   0  0  0
    3.8396    3.8042    0.0000 C   0  0  0
    1.2405   -5.1746    0.0000 N   0  0  0
    3.8396   -5.1746    0.0000 C   0  0  0
   -1.3586   -5.1746    0.0000 C   0  0  0
    2.5282    4.5603    0.0000 C   0  0  0
   -0.0709    4.5603    0.0000 C   0  0  1
    5.3282   -5.1628    0.0000 C   0  0  0
    4.5721   -6.4624    0.0000 C   0  0  0
   -1.3823    3.8278    0.0000 C   0  0  0
   -0.0827    6.0725    0.0000 C   0  0  0
   -2.6936    4.5839    0.0000 C   0  0  0
   -4.0759    3.9814    0.0000 N   0  0  0
   -2.8590    6.0843    0.0000 N   0  0  0
   -5.0919    5.1037    0.0000 N   0  0  0
   -4.3358    6.4033    0.0000 C   0  0  0
   -1.7603    7.1003    0.0000 C   0  0  0
  1  2  2
  2  3  1
  2  4  1
  3  5  1
  4  6  2
  4  7  1
  5  8  2
  5  9  1
  6 10  1
  7 11  2
  8 12  1
  9 13  2
 10 14  2
 10 15  1
 11 16  1
 12 17  2
 18 12  1
 15 19  1
 15 20  1
 18 21  1
 18 22  1  1  0
 21 23  1
 23 24  2
 23 25  1
 24 26  1
 25 27  1
 25 28  1
 11 14  1
 13 17  1
 19 20  1
 26 27  2
M  END
> <COMPOUND_NAMES>
Example 195 (R) (Page No: 439)

> <Reference>
WO2019148005

> <IC50_range_nM>
<100

> <smiles>
Cc1cc(C(Nc2cccc(c2)[C@H](C)Cc2nncn2C)=O)nc(C2CC2)n1

$$$$
C21H24N6O
  MOLSOFT 03092310482D

 28 31  0  0  1  0  0  0  0  0999 V2000
    0.0000   -0.0000    0.0000 O   0  0  0
    1.2877   -0.7325    0.0000 C   0  0  0
    2.5755    0.0236    0.0000 N   0  0  0
    1.2759   -2.2211    0.0000 C   0  0  0
    2.5637    1.5358    0.0000 C   0  0  0
    2.5637   -2.9536    0.0000 N   0  0  0
   -0.0354   -2.9536    0.0000 C   0  0  0
    1.2523    2.2920    0.0000 C   0  0  0
    3.8514    2.2920    0.0000 C   0  0  0
    2.5519   -4.4421    0.0000 C   0  0  0
   -0.0473   -4.4421    0.0000 C   0  0  0
    1.2405    3.8042    0.0000 C   0  0  0
    3.8396    3.8042    0.0000 C   0  0  0
    1.2405   -5.1746    0.0000 N   0  0  0
    3.8396   -5.1746    0.0000 C   0  0  0
   -1.3586   -5.1746    0.0000 C   0  0  0
    2.5282    4.5603    0.0000 C   0  0  0
   -0.0709    4.5603    0.0000 C   0  0  2
    5.3282   -5.1628    0.0000 C   0  0  0
    4.5721   -6.4624    0.0000 C   0  0  0
   -1.3823    3.8278    0.0000 C   0  0  0
   -0.0827    6.0725    0.0000 C   0  0  0
   -2.6936    4.5839    0.0000 C   0  0  0
   -4.0759    3.9814    0.0000 N   0  0  0
   -2.8590    6.0843    0.0000 N   0  0  0
   -5.0919    5.1037    0.0000 N   0  0  0
   -4.3358    6.4033    0.0000 C   0  0  0
   -1.7603    7.1003    0.0000 C   0  0  0
  1  2  2
  2  3  1
  2  4  1
  3  5  1
  4  6  2
  4  7  1
  5  8  2
  5  9  1
  6 10  1
  7 11  2
  8 12  1
  9 13  2
 10 14  2
 10 15  1
 11 16  1
 12 17  2
 18 12  1
 15 19  1
 15 20  1
 18 21  1
 18 22  1  6  0
 21 23  1
 23 24  2
 23 25  1
 24 26  1
 25 27  1
 25 28  1
 11 14  1
 13 17  1
 19 20  1
 26 27  2
M  END
> <COMPOUND_NAMES>
Example 325 (S) (Page No: 524)

> <Reference>
WO2019148005

> <IC50_range_nM>
101-300

> <smiles>
Cc1cc(C(Nc2cccc(c2)[C@@H](C)Cc2nncn2C)=O)nc(C2CC2)n1

$$$$
C23H26N6O
  MOLSOFT 03092310482D

 30 34  0  0  1  0  0  0  0  0999 V2000
    0.0000   -0.0000    0.0000 O   0  0  0
    1.2875   -0.7324    0.0000 C   0  0  0
    2.5750    0.0236    0.0000 N   0  0  0
    1.2757   -2.2207    0.0000 C   0  0  0
    2.5632    1.5356    0.0000 C   0  0  0
    2.5632   -2.9530    0.0000 N   0  0  0
   -0.0354   -2.9530    0.0000 C   0  0  0
    1.2521    2.2915    0.0000 C   0  0  0
    3.8507    2.2915    0.0000 C   0  0  0
    2.5514   -4.4414    0.0000 C   0  0  0
   -0.0472   -4.4414    0.0000 C   0  0  0
    1.2403    3.8035    0.0000 C   0  0  0
    3.8389    3.8035    0.0000 C   0  0  0
    1.2403   -5.1737    0.0000 N   0  0  0
    3.8389   -5.1737    0.0000 C   0  0  0
   -1.3584   -5.1737    0.0000 C   0  0  0
    2.5278    4.5595    0.0000 C   0  0  0
   -0.0709    4.5595    0.0000 C   0  0  1
    5.3273   -5.1619    0.0000 C   0  0  0
    4.5713   -6.4612    0.0000 C   0  0  0
   -2.1144   -6.4612    0.0000 C   0  0  0
   -2.8703   -5.1619    0.0000 C   0  0  0
   -1.3820    3.8271    0.0000 C   0  0  0
   -0.0827    6.0714    0.0000 C   0  0  0
   -2.6932    4.5831    0.0000 C   0  0  0
   -4.0752    3.9807    0.0000 N   0  0  0
   -2.8585    6.0832    0.0000 N   0  0  0
   -5.0910    5.1028    0.0000 N   0  0  0
   -4.3350    6.4022    0.0000 C   0  0  0
   -1.7600    7.0991    0.0000 C   0  0  0
  1  2  2
  2  3  1
  2  4  1
  3  5  1
  4  6  2
  4  7  1
  5  8  2
  5  9  1
  6 10  1
  7 11  2
  8 12  1
  9 13  2
 10 14  2
 10 15  1
 11 16  1
 12 17  2
 18 12  1
 15 19  1
 15 20  1
 16 21  1
 16 22  1
 18 23  1
 18 24  1  1  0
 23 25  1
 25 26  2
 25 27  1
 26 28  1
 27 29  1
 27 30  1
 11 14  1
 13 17  1
 19 20  1
 21 22  1
 28 29  2
M  END
> <COMPOUND_NAMES>
Example 193 (R) (Page No: 437)

> <Reference>
WO2019148005

> <IC50_range_nM>
<100

> <smiles>
C[C@H](Cc1nncn1C)c1cccc(c1)NC(c1cc(C2CC2)nc(C2CC2)n1)=O

$$$$
C21H21F3N6O
  MOLSOFT 03092310482D

 31 34  0  0  1  0  0  0  0  0999 V2000
    0.0000   -0.0000    0.0000 F   0  0  0
    0.7463    1.3150    0.0000 C   0  0  0
    1.4927    2.6300    0.0000 F   0  0  0
   -0.5686    2.0732    0.0000 C   0  0  0
    2.0376    0.5686    0.0000 C   0  0  2
   -0.7345    3.5777    0.0000 N   0  0  0
   -1.9547    1.4690    0.0000 N   0  0  0
    2.7721    1.8836    0.0000 F   0  0  0
    3.3289   -0.1659    0.0000 C   0  0  0
    1.2794   -0.7226    0.0000 C   0  0  0
   -2.2153    3.8975    0.0000 N   0  0  0
   -2.9735    2.5944    0.0000 C   0  0  0
   -2.2746    0.0118    0.0000 C   0  0  0
    3.3171   -1.6585    0.0000 C   0  0  0
    4.6202    0.5923    0.0000 C   0  0  0
    4.6083   -2.3930    0.0000 C   0  0  0
    5.9115   -0.1422    0.0000 C   0  0  0
    4.5965   -3.8857    0.0000 N   0  0  0
    5.8996   -1.6348    0.0000 C   0  0  0
    3.2815   -4.6202    0.0000 C   0  0  0
    1.9665   -3.8620    0.0000 O   0  0  0
    3.2697   -6.1129    0.0000 C   0  0  0
    4.5610   -6.8592    0.0000 N   0  0  0
    1.9547   -6.8592    0.0000 C   0  0  0
    4.5491   -8.3519    0.0000 C   0  0  0
    1.9428   -8.3519    0.0000 C   0  0  0
    3.2341   -9.0864    0.0000 N   0  0  0
    5.8404   -9.0864    0.0000 C   0  0  0
    0.6279   -9.0864    0.0000 C   0  0  0
    7.3331   -9.0745    0.0000 C   0  0  0
    6.5749  -10.3776    0.0000 C   0  0  0
  1  2  1
  2  3  1
  2  4  1
  5  2  1  6  0
  4  6  2
  4  7  1
  5  8  1
  5  9  1
  5 10  1
  6 11  1
  7 12  1
  7 13  1
  9 14  2
  9 15  1
 14 16  1
 15 17  2
 16 18  1
 16 19  2
 18 20  1
 20 21  2
 20 22  1
 22 23  2
 22 24  1
 23 25  1
 24 26  2
 25 27  2
 25 28  1
 26 29  1
 28 30  1
 28 31  1
 11 12  2
 17 19  1
 26 27  1
 30 31  1
M  END
> <COMPOUND_NAMES>
Example 344 (R) (Page No: 533)

> <Reference>
WO2019148005

> <IC50_range_nM>
101-300

> <smiles>
Cc1cc(C(Nc2cccc(c2)[C@](C)(C(c2nncn2C)(F)F)F)=O)nc(C2CC2)n1

$$$$
C22H22F2N6O
  MOLSOFT 03092310482D

 31 35  0  0  0  0  0  0  0  0999 V2000
    0.0000   -0.0000    0.0000 F   0  0  0
    0.7437   -1.3014    0.0000 C   0  0  0
    1.1775   -2.0761    0.0000 F   0  0  0
    2.0451   -0.5268    0.0000 C   0  0  0
   -1.2395   -2.4170    0.0000 C   0  0  0
    3.4086   -1.1310    0.0000 N   0  0  0
    2.1846    0.9916    0.0000 N   0  0  0
   -0.4648   -2.8508    0.0000 C   0  0  0
   -2.7733   -2.4015    0.0000 C   0  0  0
   -2.0141   -1.0845    0.0000 C   0  0  0
    4.4001    0.0155    0.0000 N   0  0  0
    3.6565    1.3169    0.0000 C   0  0  0
    1.0381    2.0141    0.0000 C   0  0  0
   -0.4803   -4.3537    0.0000 C   0  0  0
    0.8366   -2.0761    0.0000 C   0  0  0
    0.8212   -5.0973    0.0000 C   0  0  0
    2.1381   -2.8198    0.0000 C   0  0  0
    0.8057   -6.6002    0.0000 N   0  0  0
    2.1226   -4.3227    0.0000 C   0  0  0
    2.1071   -7.3439    0.0000 C   0  0  0
    2.0916   -8.8468    0.0000 O   0  0  0
    3.4086   -6.5692    0.0000 C   0  0  0
    3.3931   -5.0354    0.0000 N   0  0  0
    4.7100   -7.3129    0.0000 C   0  0  0
    4.6945   -4.2607    0.0000 C   0  0  0
    6.0115   -6.5382    0.0000 C   0  0  0
    5.9960   -5.0044    0.0000 N   0  0  0
    4.6790   -2.7268    0.0000 C   0  0  0
    7.3129   -7.2819    0.0000 C   0  0  0
    3.9043   -1.3944    0.0000 C   0  0  0
    5.4227   -1.3944    0.0000 C   0  0  0
  1  2  1
  2  3  1
  2  4  1
  2  5  1
  4  6  2
  4  7  1
  5  8  1
  5  9  1
  5 10  1
  6 11  1
  7 12  1
  7 13  1
  8 14  2
  8 15  1
 14 16  1
 15 17  2
 16 18  1
 16 19  2
 18 20  1
 20 21  2
 20 22  1
 22 23  2
 22 24  1
 23 25  1
 24 26  2
 25 27  2
 25 28  1
 26 29  1
 28 30  1
 28 31  1
  9 10  1
 11 12  2
 17 19  1
 26 27  1
 30 31  1
M  END
> <COMPOUND_NAMES>
Example 346 (Page No: 534)

> <Reference>
WO2019148005

> <IC50_range_nM>
<100

> <smiles>
Cc1cc(C(Nc2cccc(c2)C2(CC2)C(c2nncn2C)(F)F)=O)nc(C2CC2)n1

$$$$
C23H24F2N6O
  MOLSOFT 03092310482D

 32 36  0  0  0  0  0  0  0  0999 V2000
    0.0000   -0.0000    0.0000 F   0  0  0
    0.7343   -1.2910    0.0000 C   0  0  0
   -0.7817   -1.2791    0.0000 F   0  0  0
    1.1133   -2.7359    0.0000 C   0  0  0
    2.1792   -0.8883    0.0000 C   0  0  0
    2.5582   -2.3332    0.0000 C   0  0  0
    3.8492   -3.0675    0.0000 C   0  0  0
    3.8492   -1.5634    0.0000 C   0  0  0
    3.8373   -4.5598    0.0000 C   0  0  0
    5.1402   -2.3095    0.0000 C   0  0  0
    3.8373   -0.0474    0.0000 C   0  0  0
    5.1283   -5.2941    0.0000 C   0  0  0
    6.4311   -3.0438    0.0000 C   0  0  0
    5.0454    0.8527    0.0000 N   0  0  0
    2.6056    0.8527    0.0000 N   0  0  0
    5.1165   -6.7864    0.0000 N   0  0  0
    6.4193   -4.5361    0.0000 C   0  0  0
    4.5717    2.2977    0.0000 N   0  0  0
    3.0557    2.2977    0.0000 C   0  0  0
    1.1607    0.4027    0.0000 C   0  0  0
    3.8018   -7.5207    0.0000 C   0  0  0
    2.4872   -6.7627    0.0000 O   0  0  0
    3.7900   -9.0130    0.0000 C   0  0  0
    5.0809   -9.7592    0.0000 N   0  0  0
    2.4753   -9.7592    0.0000 C   0  0  0
    5.0691  -11.2515    0.0000 C   0  0  0
    2.4635  -11.2515    0.0000 C   0  0  0
    3.7544  -11.9858    0.0000 N   0  0  0
    6.3600  -11.9858    0.0000 C   0  0  0
    1.1488  -11.9858    0.0000 C   0  0  0
    7.8523  -11.9739    0.0000 C   0  0  0
    7.1062  -13.2767    0.0000 C   0  0  0
  1  2  1
  2  3  1
  2  4  1
  2  5  1
  4  6  1
  6  7  1
  6  8  1
  7  9  2
  7 10  1
  8 11  1
  9 12  1
 10 13  2
 11 14  2
 11 15  1
 12 16  1
 12 17  2
 14 18  1
 15 19  1
 15 20  1
 16 21  1
 21 22  2
 21 23  1
 23 24  2
 23 25  1
 24 26  1
 25 27  2
 26 28  2
 26 29  1
 27 30  1
 29 31  1
 29 32  1
  5  6  1
 13 17  1
 18 19  2
 27 28  1
 31 32  1
M  END
> <COMPOUND_NAMES>
Example 526 (Page No: 665)

> <Reference>
WO2019148005

> <IC50_range_nM>
<100

> <smiles>
Cc1cc(C(Nc2cccc(c2)C2(Cc3nncn3C)CC(C2)(F)F)=O)nc(C2CC2)n1

$$$$
C18H17F3N6O
  MOLSOFT 03092310482D

 28 30  0  0  1  0  0  0  0  0999 V2000
    0.0000   -0.0000    0.0000 F   0  0  0
    0.7291    1.3053    0.0000 C   0  0  0
    2.0109    0.5762    0.0000 F   0  0  0
    1.4582    2.6106    0.0000 F   0  0  0
   -0.5762    2.0579    0.0000 C   0  0  0
   -0.5880    3.5631    0.0000 N   0  0  0
   -1.8815    1.3288    0.0000 N   0  0  0
   -1.8933    4.3157    0.0000 C   0  0  0
   -3.1868    2.0814    0.0000 C   0  0  0
   -1.9050    5.8209    0.0000 C   0  0  0
   -3.1986    3.5866    0.0000 C   0  0  0
   -3.2103    6.5735    0.0000 O   0  0  0
   -0.6232    6.5735    0.0000 N   0  0  0
   -0.6350    8.0787    0.0000 C   0  0  0
   -1.9403    8.8313    0.0000 C   0  0  0
    0.6468    8.8313    0.0000 C   0  0  0
   -1.9521   10.3365    0.0000 C   0  0  0
    0.6350   10.3365    0.0000 C   0  0  0
   -0.6703   11.0891    0.0000 C   0  0  0
   -3.2574   11.0891    0.0000 C   0  0  1
   -4.5626   10.3600    0.0000 C   0  0  0
   -3.2691   12.5943    0.0000 C   0  0  0
   -5.8679   11.1126    0.0000 C   0  0  0
   -7.2438   10.5129    0.0000 N   0  0  0
   -6.0326   12.6061    0.0000 N   0  0  0
   -8.2551   11.6300    0.0000 N   0  0  0
   -7.5025   12.9236    0.0000 C   0  0  0
   -4.9389   13.6174    0.0000 C   0  0  0
  1  2  1
  2  3  1
  2  4  1
  2  5  1
  5  6  2
  5  7  1
  6  8  1
  7  9  2
  8 10  1
  8 11  2
 10 12  2
 10 13  1
 13 14  1
 14 15  2
 14 16  1
 15 17  1
 16 18  2
 17 19  2
 20 17  1
 20 21  1
 20 22  1  1  0
 21 23  1
 23 24  2
 23 25  1
 24 26  1
 25 27  1
 25 28  1
  9 11  1
 18 19  1
 26 27  2
M  END
> <COMPOUND_NAMES>
Example 187 (R) (Page No: 435)

> <Reference>
WO2019148005

> <IC50_range_nM>
101-300

> <smiles>
C[C@H](Cc1nncn1C)c1cccc(c1)NC(c1ccnc(C(F)(F)F)n1)=O

$$$$
C19H19F3N6O
  MOLSOFT 03092310482D

 29 31  0  0  1  0  0  0  0  0999 V2000
    0.0000   -0.0000    0.0000 F   0  0  0
    0.7314   -1.2859    0.0000 C   0  0  0
   -0.5780   -2.0173    0.0000 F   0  0  0
    1.4628   -2.5717    0.0000 F   0  0  0
    2.0173   -0.5309    0.0000 C   0  0  0
    2.0055    0.9791    0.0000 N   0  0  0
    3.3031   -1.2623    0.0000 N   0  0  0
    3.2913    1.7341    0.0000 C   0  0  0
    4.5890   -0.5073    0.0000 C   0  0  0
    3.2795    3.2441    0.0000 C   0  0  0
    4.5772    1.0027    0.0000 C   0  0  0
    5.8749   -1.2387    0.0000 C   0  0  0
    1.9701    3.9991    0.0000 O   0  0  0
    4.5654    3.9991    0.0000 N   0  0  0
    4.5536    5.5092    0.0000 C   0  0  0
    3.2441    6.2642    0.0000 C   0  0  0
    5.8395    6.2642    0.0000 C   0  0  0
    3.2324    7.7742    0.0000 C   0  0  0
    5.8277    7.7742    0.0000 C   0  0  0
    4.5182    8.5292    0.0000 C   0  0  0
    1.9229    8.5292    0.0000 C   0  0  1
    0.6134    7.7978    0.0000 C   0  0  0
    1.9111   10.0392    0.0000 C   0  0  0
   -0.6960    8.5528    0.0000 C   0  0  0
   -2.0763    7.9511    0.0000 N   0  0  0
   -0.8612   10.0510    0.0000 N   0  0  0
   -3.0908    9.0718    0.0000 N   0  0  0
   -2.3358   10.3695    0.0000 C   0  0  0
    0.2359   11.0655    0.0000 C   0  0  0
  1  2  1
  2  3  1
  2  4  1
  2  5  1
  5  6  2
  5  7  1
  6  8  1
  7  9  2
  8 10  1
  8 11  2
  9 12  1
 10 13  2
 10 14  1
 14 15  1
 15 16  2
 15 17  1
 16 18  1
 17 19  2
 18 20  2
 21 18  1
 21 22  1
 21 23  1  1  0
 22 24  1
 24 25  2
 24 26  1
 25 27  1
 26 28  1
 26 29  1
  9 11  1
 19 20  1
 27 28  2
M  END
> <COMPOUND_NAMES>
Example 194 (R) (Page No: 438)

> <Reference>
WO2019148005

> <IC50_range_nM>
<100

> <smiles>
Cc1cc(C(Nc2cccc(c2)[C@H](C)Cc2nncn2C)=O)nc(C(F)(F)F)n1

$$$$
C19H19F3N6O
  MOLSOFT 03092310482D

 29 31  0  0  0  0  0  0  0  0999 V2000
    0.0000   -0.0000    0.0000 F   0  0  0
    0.7302    1.3073    0.0000 C   0  0  0
    2.0139    0.5771    0.0000 F   0  0  0
    1.4604    2.6145    0.0000 F   0  0  0
   -0.5771    2.0610    0.0000 C   0  0  0
   -0.5889    3.5685    0.0000 N   0  0  0
   -1.8843    1.3308    0.0000 N   0  0  0
   -1.8961    4.3222    0.0000 C   0  0  0
   -3.1916    2.0845    0.0000 C   0  0  0
   -1.9079    5.8297    0.0000 C   0  0  0
   -3.2034    3.5802    0.0000 C   0  0  0
   -3.2151    6.5834    0.0000 O   0  0  0
   -0.6242    6.5834    0.0000 N   0  0  0
   -0.6360    8.0909    0.0000 C   0  0  0
   -1.9432    8.8446    0.0000 C   0  0  0
    0.6477    8.8446    0.0000 C   0  0  0
   -1.9550   10.3521    0.0000 C   0  0  0
    0.6360   10.3521    0.0000 C   0  0  0
   -0.6713   11.1058    0.0000 C   0  0  0
   -3.2623   11.1058    0.0000 C   0  0  0
   -4.5695   11.8713    0.0000 C   0  0  0
   -4.0160    9.8221    0.0000 C   0  0  0
   -2.5321   12.4131    0.0000 C   0  0  0
   -5.8768   11.1294    0.0000 C   0  0  0
   -7.2547   11.7535    0.0000 N   0  0  0
   -6.0417    9.6572    0.0000 N   0  0  0
   -8.2675   10.6583    0.0000 N   0  0  0
   -7.5138    9.3628    0.0000 C   0  0  0
   -4.9464    8.6679    0.0000 C   0  0  0
  1  2  1
  2  3  1
  2  4  1
  2  5  1
  5  6  2
  5  7  1
  6  8  1
  7  9  2
  8 10  1
  8 11  2
 10 12  2
 10 13  1
 13 14  1
 14 15  2
 14 16  1
 15 17  1
 16 18  2
 17 19  2
 17 20  1
 20 21  1
 20 22  1
 20 23  1
 21 24  1
 24 25  2
 24 26  1
 25 27  1
 26 28  1
 26 29  1
  9 11  1
 18 19  1
 27 28  2
M  END
> <COMPOUND_NAMES>
Example 285 (Page No: 494)

> <Reference>
WO2019148005

> <IC50_range_nM>
101-300

> <smiles>
CC(C)(Cc1nncn1C)c1cccc(c1)NC(c1ccnc(C(F)(F)F)n1)=O

$$$$
C22H24N6O2
  MOLSOFT 03092310482D

 30 34  0  0  0  0  0  0  0  0999 V2000
    0.0000   -0.0000    0.0000 O   0  0  0
    1.2855   -0.7312    0.0000 C   0  0  0
    2.5710    0.0236    0.0000 N   0  0  0
    1.2737   -2.2172    0.0000 C   0  0  0
    2.5592    1.5331    0.0000 C   0  0  0
    2.5592   -2.9602    0.0000 N   0  0  0
   -0.0354   -2.9602    0.0000 C   0  0  0
    1.2501    2.2879    0.0000 C   0  0  0
    3.8447    2.2879    0.0000 C   0  0  0
    2.5474   -4.4461    0.0000 C   0  0  0
   -0.0472   -4.4461    0.0000 C   0  0  0
    1.2383    3.7975    0.0000 C   0  0  0
    3.8329    3.7975    0.0000 C   0  0  0
    1.2383   -5.1773    0.0000 N   0  0  0
    3.8329   -5.1773    0.0000 C   0  0  0
   -1.3562   -5.1773    0.0000 C   0  0  0
    2.5238    4.5523    0.0000 C   0  0  0
   -0.0708    4.5523    0.0000 C   0  0  0
    5.3188   -5.1655    0.0000 C   0  0  0
    4.5759   -6.4628    0.0000 C   0  0  0
   -1.5331    4.1749    0.0000 C   0  0  0
   -0.4717    6.0147    0.0000 C   0  0  0
    1.2147    5.3188    0.0000 C   0  0  0
   -1.9341    5.6373    0.0000 O   0  0  0
    1.2029    6.8284    0.0000 C   0  0  0
    2.4059    7.7247    0.0000 N   0  0  0
   -0.0236    7.7247    0.0000 N   0  0  0
    1.9341    9.1635    0.0000 N   0  0  0
    0.4246    9.1635    0.0000 C   0  0  0
   -1.4624    7.2765    0.0000 C   0  0  0
  1  2  2
  2  3  1
  2  4  1
  3  5  1
  4  6  2
  4  7  1
  5  8  2
  5  9  1
  6 10  1
  7 11  2
  8 12  1
  9 13  2
 10 14  2
 10 15  1
 11 16  1
 12 17  2
 12 18  1
 15 19  1
 15 20  1
 18 21  1
 18 22  1
 18 23  1
 21 24  1
 23 25  1
 25 26  2
 25 27  1
 26 28  1
 27 29  1
 27 30  1
 11 14  1
 13 17  1
 19 20  1
 22 24  1
 28 29  2
M  END
> <COMPOUND_NAMES>
Example 336 (Page No: 529)

> <Reference>
WO2019148005

> <IC50_range_nM>
<100

> <smiles>
Cc1cc(C(Nc2cccc(c2)C2(Cc3nncn3C)COC2)=O)nc(C2CC2)n1

$$$$
C23H26N6O2
  MOLSOFT 03092310482D

 31 35  0  0  0  0  0  0  0  0999 V2000
    0.0000   -0.0000    0.0000 O   0  0  0
    1.2846   -0.7307    0.0000 C   0  0  0
    2.5692    0.0236    0.0000 N   0  0  0
    1.2728   -2.2156    0.0000 C   0  0  0
    2.5574    1.5321    0.0000 C   0  0  0
   -0.0354   -2.9463    0.0000 N   0  0  0
    2.5574   -2.9463    0.0000 C   0  0  0
    1.2492    2.2863    0.0000 C   0  0  0
    3.8420    2.2863    0.0000 C   0  0  0
   -0.0471   -4.4312    0.0000 C   0  0  0
    2.5456   -4.4312    0.0000 C   0  0  0
    1.2374    3.7948    0.0000 C   0  0  0
    3.8302    3.7948    0.0000 C   0  0  0
    1.2374   -5.1619    0.0000 N   0  0  0
   -1.3553   -5.1619    0.0000 C   0  0  0
    3.8302   -5.1619    0.0000 C   0  0  0
    2.5220    4.5491    0.0000 C   0  0  0
   -0.0707    4.5491    0.0000 C   0  0  0
   -1.7560   -6.5997    0.0000 C   0  0  0
   -2.8167   -4.7612    0.0000 C   0  0  0
   -1.5321    4.1720    0.0000 C   0  0  0
   -0.4714    6.0105    0.0000 C   0  0  0
    1.2139    5.3034    0.0000 C   0  0  0
   -3.2174   -6.1990    0.0000 C   0  0  0
   -1.9328    5.6333    0.0000 O   0  0  0
    1.2021    6.8119    0.0000 C   0  0  0
    2.4042    7.7075    0.0000 N   0  0  0
   -0.0236    7.7075    0.0000 N   0  0  0
    1.9328    9.1453    0.0000 N   0  0  0
    0.4243    9.1453    0.0000 C   0  0  0
   -1.4614    7.2597    0.0000 C   0  0  0
  1  2  2
  2  3  1
  2  4  1
  3  5  1
  4  6  2
  4  7  1
  5  8  2
  5  9  1
  6 10  1
  7 11  2
  8 12  1
  9 13  2
 10 14  2
 10 15  1
 11 16  1
 12 17  2
 12 18  1
 15 19  1
 15 20  1
 18 21  1
 18 22  1
 18 23  1
 19 24  1
 21 25  1
 23 26  1
 26 27  2
 26 28  1
 27 29  1
 28 30  1
 28 31  1
 11 14  1
 13 17  1
 20 24  1
 22 25  1
 29 30  2
M  END
> <COMPOUND_NAMES>
Example 340 (Page No: 531)

> <Reference>
WO2019148005

> <IC50_range_nM>
<100

> <smiles>
Cc1cc(C(Nc2cccc(c2)C2(Cc3nncn3C)COC2)=O)nc(C2CCC2)n1

$$$$
C24H26N6O2
  MOLSOFT 03092310482D

 32 37  0  0  0  0  0  0  0  0999 V2000
    0.0000   -0.0000    0.0000 O   0  0  0
    1.2857   -0.7313    0.0000 C   0  0  0
    2.5715    0.0236    0.0000 N   0  0  0
    1.2739   -2.2176    0.0000 C   0  0  0
    2.5597    1.5334    0.0000 C   0  0  0
   -0.0354   -2.9489    0.0000 N   0  0  0
    2.5597   -2.9489    0.0000 C   0  0  0
    1.2503    2.2884    0.0000 C   0  0  0
    3.8454    2.2884    0.0000 C   0  0  0
   -0.0472   -4.4352    0.0000 C   0  0  0
    2.5479   -4.4352    0.0000 C   0  0  0
    1.2385    3.7982    0.0000 C   0  0  0
    3.8336    3.7982    0.0000 C   0  0  0
    1.2385   -5.1665    0.0000 N   0  0  0
   -1.3565   -5.1665    0.0000 C   0  0  0
    3.8336   -5.1665    0.0000 C   0  0  0
    2.5243    4.5531    0.0000 C   0  0  0
   -0.0708    4.5531    0.0000 C   0  0  0
   -2.1114   -6.4522    0.0000 C   0  0  0
   -2.8663   -5.1547    0.0000 C   0  0  0
    5.3198   -5.1547    0.0000 C   0  0  0
    4.5767   -6.4522    0.0000 C   0  0  0
   -1.5334    4.1757    0.0000 C   0  0  0
   -0.4718    6.0158    0.0000 C   0  0  0
    1.2150    5.3198    0.0000 C   0  0  0
   -1.9345    5.6383    0.0000 O   0  0  0
    1.2032    6.8297    0.0000 C   0  0  0
    2.4063    7.7262    0.0000 N   0  0  0
   -0.0236    7.7262    0.0000 N   0  0  0
    1.9345    9.1652    0.0000 N   0  0  0
    0.4246    9.1652    0.0000 C   0  0  0
   -1.4627    7.2779    0.0000 C   0  0  0
  1  2  2
  2  3  1
  2  4  1
  3  5  1
  4  6  2
  4  7  1
  5  8  2
  5  9  1
  6 10  1
  7 11  2
  8 12  1
  9 13  2
 10 14  2
 10 15  1
 11 16  1
 12 17  2
 12 18  1
 15 19  1
 15 20  1
 16 21  1
 16 22  1
 18 23  1
 18 24  1
 18 25  1
 23 26  1
 25 27  1
 27 28  2
 27 29  1
 28 30  1
 29 31  1
 29 32  1
 11 14  1
 13 17  1
 19 20  1
 21 22  1
 24 26  1
 30 31  2
M  END
> <COMPOUND_NAMES>
Example 347 (Page No: 537)

> <Reference>
WO2019148005

> <IC50_range_nM>
<100

> <smiles>
Cn1cnnc1CC1(COC1)c1cccc(c1)NC(c1cc(C2CC2)nc(C2CC2)n1)=O

$$$$
C25H28N6O2
  MOLSOFT 03092310482D

 33 38  0  0  0  0  0  0  0  0999 V2000
    0.0000   -0.0000    0.0000 O   0  0  0
   -1.3146   -0.7343    0.0000 C   0  0  0
   -1.3264   -2.2265    0.0000 N   0  0  0
   -2.6291    0.0237    0.0000 C   0  0  0
   -0.0355   -2.9607    0.0000 C   0  0  0
   -2.6410    1.5396    0.0000 N   0  0  0
   -3.9437   -0.7106    0.0000 C   0  0  0
    1.2553   -2.2028    0.0000 C   0  0  0
   -0.0474   -4.4529    0.0000 C   0  0  0
   -3.9555    2.2975    0.0000 C   0  0  0
   -5.2583    0.0474    0.0000 C   0  0  0
    2.5462   -2.9370    0.0000 C   0  0  0
    1.2435   -5.1872    0.0000 C   0  0  0
   -5.2701    1.5633    0.0000 N   0  0  0
   -3.9674    3.8134    0.0000 C   0  0  0
   -6.5728   -0.6869    0.0000 C   0  0  0
    2.5344   -4.4292    0.0000 C   0  0  0
    3.8371   -2.1791    0.0000 C   0  0  0
    1.2317   -6.6794    0.0000 C   0  0  0
   -4.7253    5.1280    0.0000 C   0  0  0
   -3.2331    5.1280    0.0000 C   0  0  0
    4.2161   -0.7106    0.0000 C   0  0  0
    5.2819   -2.5581    0.0000 C   0  0  0
    3.8253   -3.6713    0.0000 C   0  0  0
    1.9659   -7.9703    0.0000 C   0  0  0
    0.4737   -7.9703    0.0000 C   0  0  0
    5.6609   -1.0895    0.0000 O   0  0  0
    5.1161   -4.4056    0.0000 C   0  0  0
    5.2583   -5.8859    0.0000 N   0  0  0
    6.4781   -3.7779    0.0000 N   0  0  0
    6.7149   -6.1820    0.0000 N   0  0  0
    7.4729   -4.8793    0.0000 C   0  0  0
    6.7741   -2.2975    0.0000 C   0  0  0
  1  2  2
  2  3  1
  2  4  1
  3  5  1
  4  6  2
  4  7  1
  5  8  2
  5  9  1
  6 10  1
  7 11  2
  8 12  1
  9 13  2
 10 14  2
 10 15  1
 11 16  1
 12 17  2
 12 18  1
 13 19  1
 15 20  1
 15 21  1
 18 22  1
 18 23  1
 18 24  1
 19 25  1
 19 26  1
 22 27  1
 24 28  1
 28 29  2
 28 30  1
 29 31  1
 30 32  1
 30 33  1
 11 14  1
 13 17  1
 20 21  1
 23 27  1
 25 26  1
 31 32  2
M  END
> <COMPOUND_NAMES>
Example 698 (Page No: 774)

> <Reference>
WO2019148005

> <IC50_range_nM>
<100

> <smiles>
Cc1cc(C(Nc2cc(cc(c2)C2(Cc3nncn3C)COC2)C2CC2)=O)nc(C2CC2)n1

$$$$
C23H26N6O2
  MOLSOFT 03092310482D

 31 35  0  0  0  0  0  0  0  0999 V2000
    0.0000   -0.0000    0.0000 O   0  0  0
    1.2852   -0.7310    0.0000 C   0  0  0
    2.5704    0.0236    0.0000 N   0  0  0
    1.2734   -2.2167    0.0000 C   0  0  0
    2.5586    1.5328    0.0000 C   0  0  0
    2.5586   -2.9595    0.0000 N   0  0  0
   -0.0354   -2.9595    0.0000 C   0  0  0
    1.2498    2.2874    0.0000 C   0  0  0
    3.8438    2.2874    0.0000 C   0  0  0
    2.5468   -4.4452    0.0000 C   0  0  0
   -0.0472   -4.4452    0.0000 C   0  0  0
    1.2380    3.7967    0.0000 C   0  0  0
    3.8320    3.7967    0.0000 C   0  0  0
    1.2380   -5.1762    0.0000 N   0  0  0
    3.8320   -5.1762    0.0000 C   0  0  0
   -1.3560   -5.1762    0.0000 C   0  0  0
    2.5233    4.5513    0.0000 C   0  0  0
   -0.0707    4.5513    0.0000 C   0  0  0
    5.3177   -5.1644    0.0000 C   0  0  0
    4.5631   -6.4614    0.0000 C   0  0  0
   -1.5328    4.1740    0.0000 C   0  0  0
   -0.4716    6.0134    0.0000 C   0  0  0
    1.2145    5.3177    0.0000 C   0  0  0
   -1.9337    5.6360    0.0000 O   0  0  0
    1.2027    6.8269    0.0000 C   0  0  0
    2.4053    7.7230    0.0000 N   0  0  0
   -0.0236    7.7230    0.0000 N   0  0  0
    1.9337    9.1615    0.0000 N   0  0  0
    0.4245    9.1615    0.0000 C   0  0  0
   -1.4621    7.2750    0.0000 C   0  0  0
   -2.5822    8.2890    0.0000 C   0  0  0
  1  2  2
  2  3  1
  2  4  1
  3  5  1
  4  6  2
  4  7  1
  5  8  2
  5  9  1
  6 10  1
  7 11  2
  8 12  1
  9 13  2
 10 14  2
 10 15  1
 11 16  1
 12 17  2
 12 18  1
 15 19  1
 15 20  1
 18 21  1
 18 22  1
 18 23  1
 21 24  1
 23 25  1
 25 26  2
 25 27  1
 26 28  1
 27 29  1
 27 30  1
 30 31  1
 11 14  1
 13 17  1
 19 20  1
 22 24  1
 28 29  2
M  END
> <COMPOUND_NAMES>
Example 705 (Page No: 782)

> <Reference>
WO2019148005

> <IC50_range_nM>
3001-10000

> <smiles>
CCn1cnnc1CC1(COC1)c1cccc(c1)NC(c1cc(C)nc(C2CC2)n1)=O

$$$$
C23H26N6O2
  MOLSOFT 03092310482D

 31 35  0  0  1  0  0  0  0  0999 V2000
    0.0000   -0.0000    0.0000 O   0  0  0
    1.2860   -0.7315    0.0000 C   0  0  0
    2.5720    0.0236    0.0000 N   0  0  0
    1.2742   -2.2180    0.0000 C   0  0  0
    2.5602    1.5338    0.0000 C   0  0  0
    2.5602   -2.9613    0.0000 N   0  0  0
   -0.0354   -2.9613    0.0000 C   0  0  0
    1.2506    2.2888    0.0000 C   0  0  0
    3.8462    2.2888    0.0000 C   0  0  0
    2.5484   -4.4479    0.0000 C   0  0  0
   -0.0472   -4.4479    0.0000 C   0  0  0
    1.2388    3.7990    0.0000 C   0  0  0
    3.8344    3.7990    0.0000 C   0  0  0
    1.2388   -5.1794    0.0000 N   0  0  0
    3.8344   -5.1794    0.0000 C   0  0  0
   -1.3568   -5.1794    0.0000 C   0  0  0
    2.5248    4.5541    0.0000 C   0  0  0
   -0.0708    4.5541    0.0000 C   0  0  1
    5.3210   -5.1676    0.0000 C   0  0  0
    4.5659   -6.4654    0.0000 C   0  0  0
   -0.2360    6.0524    0.0000 C   0  0  0
   -1.4512    3.9524    0.0000 C   0  0  0
    1.2152    5.3210    0.0000 C   0  0  0
   -1.7107    6.3710    0.0000 O   0  0  0
   -2.4658    5.0732    0.0000 C   0  0  0
    1.2034    6.8311    0.0000 C   0  0  0
    2.4068    7.7278    0.0000 N   0  0  0
   -0.0236    7.7278    0.0000 N   0  0  0
    1.9349    9.1671    0.0000 N   0  0  0
    0.4247    9.1671    0.0000 C   0  0  0
   -1.4630    7.2794    0.0000 C   0  0  0
  1  2  2
  2  3  1
  2  4  1
  3  5  1
  4  6  2
  4  7  1
  5  8  2
  5  9  1
  6 10  1
  7 11  2
  8 12  1
  9 13  2
 10 14  2
 10 15  1
 11 16  1
 12 17  2
 18 12  1
 15 19  1
 15 20  1
 18 21  1
 18 22  1
 18 23  1  1  0
 21 24  1
 22 25  1
 23 26  1
 26 27  2
 26 28  1
 27 29  1
 28 30  1
 28 31  1
 11 14  1
 13 17  1
 19 20  1
 24 25  1
 29 30  2
M  END
> <COMPOUND_NAMES>
Example 534a (S) (Page No: 671)

> <Reference>
WO2019148005

> <IC50_range_nM>
101-300

> <smiles>
Cc1cc(C(Nc2cccc(c2)[C@@]2(CCOC2)Cc2nncn2C)=O)nc(C2CC2)n1

$$$$
C23H26N6O2
  MOLSOFT 03092310482D

 31 35  0  0  1  0  0  0  0  0999 V2000
    0.0000   -0.0000    0.0000 O   0  0  0
    1.2860   -0.7315    0.0000 C   0  0  0
    2.5720    0.0236    0.0000 N   0  0  0
    1.2742   -2.2180    0.0000 C   0  0  0
    2.5602    1.5338    0.0000 C   0  0  0
    2.5602   -2.9613    0.0000 N   0  0  0
   -0.0354   -2.9613    0.0000 C   0  0  0
    1.2506    2.2888    0.0000 C   0  0  0
    3.8462    2.2888    0.0000 C   0  0  0
    2.5484   -4.4479    0.0000 C   0  0  0
   -0.0472   -4.4479    0.0000 C   0  0  0
    1.2388    3.7990    0.0000 C   0  0  0
    3.8344    3.7990    0.0000 C   0  0  0
    1.2388   -5.1794    0.0000 N   0  0  0
    3.8344   -5.1794    0.0000 C   0  0  0
   -1.3568   -5.1794    0.0000 C   0  0  0
    2.5248    4.5541    0.0000 C   0  0  0
   -0.0708    4.5541    0.0000 C   0  0  2
    5.3210   -5.1676    0.0000 C   0  0  0
    4.5659   -6.4654    0.0000 C   0  0  0
   -0.2360    6.0524    0.0000 C   0  0  0
   -1.4512    3.9524    0.0000 C   0  0  0
    1.2152    5.3210    0.0000 C   0  0  0
   -1.7107    6.3710    0.0000 O   0  0  0
   -2.4658    5.0732    0.0000 C   0  0  0
    1.2034    6.8311    0.0000 C   0  0  0
    2.4068    7.7278    0.0000 N   0  0  0
   -0.0236    7.7278    0.0000 N   0  0  0
    1.9349    9.1671    0.0000 N   0  0  0
    0.4247    9.1671    0.0000 C   0  0  0
   -1.4630    7.2794    0.0000 C   0  0  0
  1  2  2
  2  3  1
  2  4  1
  3  5  1
  4  6  2
  4  7  1
  5  8  2
  5  9  1
  6 10  1
  7 11  2
  8 12  1
  9 13  2
 10 14  2
 10 15  1
 11 16  1
 12 17  2
 18 12  1
 15 19  1
 15 20  1
 18 21  1
 18 22  1
 18 23  1  6  0
 21 24  1
 22 25  1
 23 26  1
 26 27  2
 26 28  1
 27 29  1
 28 30  1
 28 31  1
 11 14  1
 13 17  1
 19 20  1
 24 25  1
 29 30  2
M  END
> <COMPOUND_NAMES>
Example 534b (R) (Page No: 671)

> <Reference>
WO2019148005

> <IC50_range_nM>
<100

> <smiles>
Cc1cc(C(Nc2cccc(c2)[C@]2(CCOC2)Cc2nncn2C)=O)nc(C2CC2)n1

$$$$
C22H22F2N6O2
  MOLSOFT 03092310482D

 32 36  0  0  0  0  0  0  0  0999 V2000
    0.0000   -0.0000    0.0000 F   0  0  0
   -0.0947   -1.4915    0.0000 C   0  0  0
    1.1482   -2.2964    0.0000 F   0  0  0
   -1.4442   -2.1662    0.0000 N   0  0  0
   -1.6927   -3.6341    0.0000 C   0  0  0
   -2.7936   -1.4678    0.0000 C   0  0  0
   -3.1843   -3.8590    0.0000 N   0  0  0
   -0.6392   -4.6876    0.0000 C   0  0  0
   -3.8708   -2.5214    0.0000 N   0  0  0
   -1.0417   -6.1318    0.0000 C   0  0  0
    0.4025   -5.7293    0.0000 C   0  0  0
   -1.0535   -7.6233    0.0000 C   0  0  0
   -2.5569   -6.1199    0.0000 C   0  0  0
    1.4560   -6.7828    0.0000 C   0  0  0
    0.7813   -4.2615    0.0000 C   0  0  0
   -2.5687   -7.6114    0.0000 O   0  0  0
    2.9002   -6.3803    0.0000 C   0  0  0
    2.2254   -3.8590    0.0000 C   0  0  0
    3.9537   -7.4339    0.0000 N   0  0  0
    3.2790   -4.9125    0.0000 C   0  0  0
    5.3978   -7.0314    0.0000 C   0  0  0
    5.7766   -5.5636    0.0000 O   0  0  0
    6.4514   -8.0849    0.0000 C   0  0  0
    7.8955   -7.6825    0.0000 N   0  0  0
    6.0489   -9.5291    0.0000 C   0  0  0
    8.9491   -8.7360    0.0000 C   0  0  0
    7.1024  -10.5826    0.0000 C   0  0  0
    8.5466  -10.1801    0.0000 N   0  0  0
   10.3932   -8.3335    0.0000 C   0  0  0
    6.7000  -12.0268    0.0000 C   0  0  0
   11.4467   -7.2563    0.0000 C   0  0  0
   11.8374   -8.7123    0.0000 C   0  0  0
  1  2  1
  2  3  1
  2  4  1
  4  5  1
  4  6  1
  5  7  2
  5  8  1
  6  9  2
  8 10  1
 10 11  1
 10 12  1
 10 13  1
 11 14  2
 11 15  1
 12 16  1
 14 17  1
 15 18  2
 17 19  1
 17 20  2
 19 21  1
 21 22  2
 21 23  1
 23 24  2
 23 25  1
 24 26  1
 25 27  2
 26 28  2
 26 29  1
 27 30  1
 29 31  1
 29 32  1
  7  9  1
 13 16  1
 18 20  1
 27 28  1
 31 32  1
M  END
> <COMPOUND_NAMES>
Example 704 (Page No: 781)

> <Reference>
WO2019148005

> <IC50_range_nM>
<100

> <smiles>
Cc1cc(C(Nc2cccc(c2)C2(Cc3nncn3C(F)F)COC2)=O)nc(C2CC2)n1

$$$$
C19H17F3N6O2
  MOLSOFT 03092310482D

 30 33  0  0  0  0  0  0  0  0999 V2000
    0.0000   -0.0000    0.0000 F   0  0  0
    0.7282    1.3038    0.0000 C   0  0  0
    2.0086    0.5756    0.0000 F   0  0  0
    1.4682    2.6076    0.0000 F   0  0  0
   -0.5756    2.0555    0.0000 C   0  0  0
   -0.5873    3.5590    0.0000 N   0  0  0
   -1.8793    1.3273    0.0000 N   0  0  0
   -1.8911    4.3108    0.0000 C   0  0  0
   -3.1831    2.0790    0.0000 C   0  0  0
   -1.9028    5.8142    0.0000 C   0  0  0
   -3.1949    3.5708    0.0000 C   0  0  0
   -3.2066    6.5660    0.0000 O   0  0  0
   -0.6225    6.5660    0.0000 N   0  0  0
   -0.6343    8.0695    0.0000 C   0  0  0
   -1.9381    8.8212    0.0000 C   0  0  0
    0.6460    8.8212    0.0000 C   0  0  0
   -1.9498   10.3247    0.0000 C   0  0  0
    0.6343   10.3247    0.0000 C   0  0  0
   -0.6695   11.0764    0.0000 C   0  0  0
   -3.2536   11.0764    0.0000 C   0  0  0
   -4.7101   10.7005    0.0000 C   0  0  0
   -3.6530   12.5329    0.0000 C   0  0  0
   -1.9733   11.8399    0.0000 C   0  0  0
   -5.1095   12.1570    0.0000 O   0  0  0
   -1.9851   13.3434    0.0000 C   0  0  0
   -0.7870   14.2361    0.0000 N   0  0  0
   -3.2066   14.2361    0.0000 N   0  0  0
   -1.2568   15.6691    0.0000 N   0  0  0
   -2.7603   15.6691    0.0000 C   0  0  0
   -4.6396   13.7897    0.0000 C   0  0  0
  1  2  1
  2  3  1
  2  4  1
  2  5  1
  5  6  2
  5  7  1
  6  8  1
  7  9  2
  8 10  1
  8 11  2
 10 12  2
 10 13  1
 13 14  1
 14 15  2
 14 16  1
 15 17  1
 16 18  2
 17 19  2
 17 20  1
 20 21  1
 20 22  1
 20 23  1
 21 24  1
 23 25  1
 25 26  2
 25 27  1
 26 28  1
 27 29  1
 27 30  1
  9 11  1
 18 19  1
 22 24  1
 28 29  2
M  END
> <COMPOUND_NAMES>
Example 337 (Page No: 529)

> <Reference>
WO2019148005

> <IC50_range_nM>
101-300

> <smiles>
Cn1cnnc1CC1(COC1)c1cccc(c1)NC(c1ccnc(C(F)(F)F)n1)=O

$$$$
C20H19F3N6O2
  MOLSOFT 03092310482D

 31 34  0  0  0  0  0  0  0  0999 V2000
    0.0000   -0.0000    0.0000 F   0  0  0
    0.7283    1.3040    0.0000 C   0  0  0
    2.0088    0.5756    0.0000 F   0  0  0
    1.4684    2.6079    0.0000 F   0  0  0
   -0.5756    2.0558    0.0000 C   0  0  0
   -0.5874    3.5595    0.0000 N   0  0  0
   -1.8796    1.3275    0.0000 N   0  0  0
   -1.8913    4.3113    0.0000 C   0  0  0
   -3.1836    2.0793    0.0000 C   0  0  0
   -1.9031    5.8150    0.0000 C   0  0  0
   -3.1953    3.5712    0.0000 C   0  0  0
   -4.4875    1.3510    0.0000 C   0  0  0
   -3.2071    6.5668    0.0000 O   0  0  0
   -0.6226    6.5668    0.0000 N   0  0  0
   -0.6344    8.0705    0.0000 C   0  0  0
   -1.9383    8.8223    0.0000 C   0  0  0
    0.6461    8.8223    0.0000 C   0  0  0
   -1.9501   10.3260    0.0000 C   0  0  0
    0.6344   10.3260    0.0000 C   0  0  0
   -0.6696   11.0778    0.0000 C   0  0  0
   -3.2540   11.0778    0.0000 C   0  0  0
   -4.7107   10.7019    0.0000 C   0  0  0
   -3.6535   12.5345    0.0000 C   0  0  0
   -1.9736   11.8414    0.0000 C   0  0  0
   -5.1101   12.1586    0.0000 O   0  0  0
   -1.9853   13.3451    0.0000 C   0  0  0
   -0.7871   14.2379    0.0000 N   0  0  0
   -3.2071   14.2379    0.0000 N   0  0  0
   -1.2570   15.6711    0.0000 N   0  0  0
   -2.7606   15.6711    0.0000 C   0  0  0
   -4.6402   13.7915    0.0000 C   0  0  0
  1  2  1
  2  3  1
  2  4  1
  2  5  1
  5  6  2
  5  7  1
  6  8  1
  7  9  2
  8 10  1
  8 11  2
  9 12  1
 10 13  2
 10 14  1
 14 15  1
 15 16  2
 15 17  1
 16 18  1
 17 19  2
 18 20  2
 18 21  1
 21 22  1
 21 23  1
 21 24  1
 22 25  1
 24 26  1
 26 27  2
 26 28  1
 27 29  1
 28 30  1
 28 31  1
  9 11  1
 19 20  1
 23 25  1
 29 30  2
M  END
> <COMPOUND_NAMES>
Example 338 (Page No: 530)

> <Reference>
WO2019148005

> <IC50_range_nM>
<100

> <smiles>
Cc1cc(C(Nc2cccc(c2)C2(Cc3nncn3C)COC2)=O)nc(C(F)(F)F)n1

$$$$
C22H21F3N6O2
  MOLSOFT 03092310482D

 33 37  0  0  0  0  0  0  0  0999 V2000
    0.0000   -0.0000    0.0000 F   0  0  0
    0.7286    1.3044    0.0000 C   0  0  0
    2.0094    0.5758    0.0000 F   0  0  0
    1.4689    2.6087    0.0000 F   0  0  0
   -0.5758    2.0564    0.0000 C   0  0  0
   -0.5875    3.5605    0.0000 N   0  0  0
   -1.8801    1.3279    0.0000 N   0  0  0
   -1.8919    4.3126    0.0000 C   0  0  0
   -3.1845    2.0799    0.0000 C   0  0  0
   -1.9036    5.8167    0.0000 C   0  0  0
   -3.1962    3.5723    0.0000 C   0  0  0
   -4.4888    1.3514    0.0000 C   0  0  0
   -3.2080    6.5688    0.0000 O   0  0  0
   -0.6228    6.5688    0.0000 N   0  0  0
   -5.2409    0.0705    0.0000 C   0  0  0
   -5.9930    1.3631    0.0000 C   0  0  0
   -0.6345    8.0729    0.0000 C   0  0  0
   -1.9389    8.8249    0.0000 C   0  0  0
    0.6463    8.8249    0.0000 C   0  0  0
   -1.9507   10.3291    0.0000 C   0  0  0
    0.6345   10.3291    0.0000 C   0  0  0
   -0.6698   11.0811    0.0000 C   0  0  0
   -3.2550   11.0811    0.0000 C   0  0  0
   -4.7121   10.7051    0.0000 C   0  0  0
   -3.6545   12.5382    0.0000 C   0  0  0
   -1.9742   11.8449    0.0000 C   0  0  0
   -5.1116   12.1622    0.0000 O   0  0  0
   -1.9859   13.3490    0.0000 C   0  0  0
   -0.7873   14.2421    0.0000 N   0  0  0
   -3.2080   14.2421    0.0000 N   0  0  0
   -1.2573   15.6757    0.0000 N   0  0  0
   -2.7615   15.6757    0.0000 C   0  0  0
   -4.6416   13.7956    0.0000 C   0  0  0
  1  2  1
  2  3  1
  2  4  1
  2  5  1
  5  6  2
  5  7  1
  6  8  1
  7  9  2
  8 10  1
  8 11  2
  9 12  1
 10 13  2
 10 14  1
 12 15  1
 12 16  1
 14 17  1
 17 18  2
 17 19  1
 18 20  1
 19 21  2
 20 22  2
 20 23  1
 23 24  1
 23 25  1
 23 26  1
 24 27  1
 26 28  1
 28 29  2
 28 30  1
 29 31  1
 30 32  1
 30 33  1
  9 11  1
 15 16  1
 21 22  1
 25 27  1
 31 32  2
M  END
> <COMPOUND_NAMES>
Example 341 (Page No: 532)

> <Reference>
WO2019148005

> <IC50_range_nM>
<100

> <smiles>
Cn1cnnc1CC1(COC1)c1cccc(c1)NC(c1cc(C2CC2)nc(C(F)(F)F)n1)=O

$$$$
C23H25N5O2
  MOLSOFT 03092310482D

 30 34  0  0  0  0  0  0  0  0999 V2000
    0.0000   -0.0000    0.0000 O   0  0  0
    1.2846   -0.7307    0.0000 C   0  0  0
    2.5692    0.0236    0.0000 N   0  0  0
    1.2728   -2.2156    0.0000 C   0  0  0
    2.5574    1.5321    0.0000 C   0  0  0
   -0.0354   -2.9581    0.0000 N   0  0  0
    2.5574   -2.9581    0.0000 C   0  0  0
    1.2492    2.2863    0.0000 C   0  0  0
    3.8420    2.2863    0.0000 C   0  0  0
   -0.0471   -4.4430    0.0000 C   0  0  0
    2.5456   -4.4430    0.0000 C   0  0  0
    1.2375    3.7949    0.0000 C   0  0  0
    3.8302    3.7949    0.0000 C   0  0  0
    1.2375   -5.1737    0.0000 C   0  0  0
   -1.3553   -5.1737    0.0000 C   0  0  0
    3.8302   -5.1737    0.0000 C   0  0  0
    2.5220    4.5491    0.0000 C   0  0  0
   -0.0707    4.5491    0.0000 C   0  0  0
   -2.1096   -6.4583    0.0000 C   0  0  0
   -2.8638   -5.1619    0.0000 C   0  0  0
   -1.5321    4.1720    0.0000 C   0  0  0
   -0.4714    6.0105    0.0000 C   0  0  0
    1.2139    5.3151    0.0000 C   0  0  0
   -1.9328    5.6333    0.0000 O   0  0  0
    1.2021    6.8237    0.0000 C   0  0  0
    2.4042    7.7193    0.0000 N   0  0  0
   -0.0236    7.7193    0.0000 N   0  0  0
    1.9328    9.1571    0.0000 N   0  0  0
    0.4243    9.1571    0.0000 C   0  0  0
   -1.4614    7.2715    0.0000 C   0  0  0
  1  2  2
  2  3  1
  2  4  1
  3  5  1
  4  6  2
  4  7  1
  5  8  2
  5  9  1
  6 10  1
  7 11  2
  8 12  1
  9 13  2
 10 14  2
 10 15  1
 11 16  1
 12 17  2
 12 18  1
 15 19  1
 15 20  1
 18 21  1
 18 22  1
 18 23  1
 21 24  1
 23 25  1
 25 26  2
 25 27  1
 26 28  1
 27 29  1
 27 30  1
 11 14  1
 13 17  1
 19 20  1
 22 24  1
 28 29  2
M  END
> <COMPOUND_NAMES>
Example 339 (Page No: 530)

> <Reference>
WO2019148005

> <IC50_range_nM>
<100

> <smiles>
Cc1cc(C2CC2)nc(c1)C(Nc1cccc(c1)C1(Cc2nncn2C)COC1)=O

$$$$
C22H23FN6O2
  MOLSOFT 03092310482D

 31 35  0  0  1  0  0  0  0  0999 V2000
    0.0000   -0.0000    0.0000 F   0  0  0
   -1.2995    0.7555    0.0000 C   0  0  2
   -1.3146    2.2515    0.0000 C   0  0  0
   -2.5990    0.0302    0.0000 C   0  0  0
   -0.1360    3.1279    0.0000 N   0  0  0
   -2.5235    3.1279    0.0000 N   0  0  0
   -0.6951   -1.0577    0.0000 C   0  0  0
   -4.0345   -0.3324    0.0000 C   0  0  0
   -2.9919    1.4657    0.0000 C   0  0  0
   -0.6044    4.5483    0.0000 N   0  0  0
   -2.0853    4.5483    0.0000 C   0  0  0
   -3.9439    2.6897    0.0000 C   0  0  0
   -0.7102   -2.5235    0.0000 C   0  0  0
    0.5742   -0.3022    0.0000 C   0  0  0
   -4.4274    1.1031    0.0000 O   0  0  0
    0.5591   -3.2488    0.0000 C   0  0  0
    1.8435   -1.0275    0.0000 C   0  0  0
    0.5440   -4.7145    0.0000 N   0  0  0
    1.8284   -2.4933    0.0000 C   0  0  0
   -0.7555   -5.4398    0.0000 C   0  0  0
   -2.0551   -4.6843    0.0000 O   0  0  0
   -0.7706   -6.9056    0.0000 C   0  0  0
   -2.0702   -7.6309    0.0000 N   0  0  0
    0.4987   -7.6309    0.0000 C   0  0  0
   -2.0853   -9.0966    0.0000 C   0  0  0
    0.4835   -9.0966    0.0000 C   0  0  0
   -0.8160   -9.8219    0.0000 N   0  0  0
   -3.3848   -9.8219    0.0000 C   0  0  0
    1.7528   -9.8219    0.0000 C   0  0  0
   -4.1403  -11.0912    0.0000 C   0  0  0
   -4.8807   -9.8068    0.0000 C   0  0  0
  2  1  1  1  0
  2  3  1
  2  4  1
  3  5  2
  3  6  1
  4  7  1
  4  8  1
  4  9  1
  5 10  1
  6 11  1
  6 12  1
  7 13  2
  7 14  1
  8 15  1
 13 16  1
 14 17  2
 16 18  1
 16 19  2
 18 20  1
 20 21  2
 20 22  1
 22 23  2
 22 24  1
 23 25  1
 24 26  2
 25 27  2
 25 28  1
 26 29  1
 28 30  1
 28 31  1
  9 15  1
 10 11  2
 17 19  1
 26 27  1
 30 31  1
M  END
> <COMPOUND_NAMES>
Example 669a (S) (Page No: 751)

> <Reference>
WO2019148005

> <IC50_range_nM>
<100

> <smiles>
Cc1cc(C(Nc2cccc(c2)C2(COC2)[C@@H](c2nncn2C)F)=O)nc(C2CC2)n1

$$$$
C22H23FN6O2
  MOLSOFT 03092310482D

 31 35  0  0  1  0  0  0  0  0999 V2000
    0.0000   -0.0000    0.0000 F   0  0  0
   -1.2995    0.7555    0.0000 C   0  0  1
   -1.3146    2.2515    0.0000 C   0  0  0
   -2.5990    0.0302    0.0000 C   0  0  0
   -0.1360    3.1279    0.0000 N   0  0  0
   -2.5235    3.1279    0.0000 N   0  0  0
   -0.6951   -1.0577    0.0000 C   0  0  0
   -4.0345   -0.3324    0.0000 C   0  0  0
   -2.9919    1.4657    0.0000 C   0  0  0
   -0.6044    4.5483    0.0000 N   0  0  0
   -2.0853    4.5483    0.0000 C   0  0  0
   -3.9439    2.6897    0.0000 C   0  0  0
   -0.7102   -2.5235    0.0000 C   0  0  0
    0.5742   -0.3022    0.0000 C   0  0  0
   -4.4274    1.1031    0.0000 O   0  0  0
    0.5591   -3.2488    0.0000 C   0  0  0
    1.8435   -1.0275    0.0000 C   0  0  0
    0.5440   -4.7145    0.0000 N   0  0  0
    1.8284   -2.4933    0.0000 C   0  0  0
   -0.7555   -5.4398    0.0000 C   0  0  0
   -2.0551   -4.6843    0.0000 O   0  0  0
   -0.7706   -6.9056    0.0000 C   0  0  0
   -2.0702   -7.6309    0.0000 N   0  0  0
    0.4987   -7.6309    0.0000 C   0  0  0
   -2.0853   -9.0966    0.0000 C   0  0  0
    0.4835   -9.0966    0.0000 C   0  0  0
   -0.8160   -9.8219    0.0000 N   0  0  0
   -3.3848   -9.8219    0.0000 C   0  0  0
    1.7528   -9.8219    0.0000 C   0  0  0
   -4.1403  -11.0912    0.0000 C   0  0  0
   -4.8807   -9.8068    0.0000 C   0  0  0
  2  1  1  6  0
  2  3  1
  2  4  1
  3  5  2
  3  6  1
  4  7  1
  4  8  1
  4  9  1
  5 10  1
  6 11  1
  6 12  1
  7 13  2
  7 14  1
  8 15  1
 13 16  1
 14 17  2
 16 18  1
 16 19  2
 18 20  1
 20 21  2
 20 22  1
 22 23  2
 22 24  1
 23 25  1
 24 26  2
 25 27  2
 25 28  1
 26 29  1
 28 30  1
 28 31  1
  9 15  1
 10 11  2
 17 19  1
 26 27  1
 30 31  1
M  END
> <COMPOUND_NAMES>
Example 669b (R) (Page No: 751)

> <Reference>
WO2019148005

> <IC50_range_nM>
<100

> <smiles>
Cc1cc(C(Nc2cccc(c2)C2(COC2)[C@H](c2nncn2C)F)=O)nc(C2CC2)n1

$$$$
C22H22F2N6O2
  MOLSOFT 03092310482D

 32 36  0  0  0  0  0  0  0  0999 V2000
    0.0000   -0.0000    0.0000 F   0  0  0
    0.7447   -1.3032    0.0000 C   0  0  0
    1.1790   -2.0788    0.0000 F   0  0  0
    2.0478   -0.5275    0.0000 C   0  0  0
   -1.2411   -2.4201    0.0000 C   0  0  0
    3.4130   -1.1325    0.0000 N   0  0  0
    2.1874    0.9929    0.0000 N   0  0  0
   -0.4654   -2.8545    0.0000 C   0  0  0
   -2.7149   -2.7925    0.0000 C   0  0  0
   -1.6445   -0.9463    0.0000 C   0  0  0
    4.4059    0.0155    0.0000 N   0  0  0
    3.6612    1.3187    0.0000 C   0  0  0
    1.0394    2.0168    0.0000 C   0  0  0
   -0.4809   -4.3594    0.0000 C   0  0  0
    0.8377   -2.0788    0.0000 C   0  0  0
   -3.1183   -1.3187    0.0000 O   0  0  0
    0.8222   -5.1040    0.0000 C   0  0  0
    2.1409   -2.8235    0.0000 C   0  0  0
    0.8067   -6.6088    0.0000 N   0  0  0
    2.1254   -4.3283    0.0000 C   0  0  0
    2.1099   -7.3535    0.0000 C   0  0  0
    2.0944   -8.8583    0.0000 O   0  0  0
    3.4130   -6.5778    0.0000 C   0  0  0
    4.7162   -7.3225    0.0000 N   0  0  0
    3.3975   -5.0420    0.0000 C   0  0  0
    6.0193   -6.5468    0.0000 C   0  0  0
    4.7007   -4.2663    0.0000 C   0  0  0
    6.0038   -5.0109    0.0000 N   0  0  0
    7.3225   -7.2915    0.0000 C   0  0  0
    4.6851   -2.7304    0.0000 C   0  0  0
    8.8273   -7.2759    0.0000 C   0  0  0
    8.0671   -8.5946    0.0000 C   0  0  0
  1  2  1
  2  3  1
  2  4  1
  2  5  1
  4  6  2
  4  7  1
  5  8  1
  5  9  1
  5 10  1
  6 11  1
  7 12  1
  7 13  1
  8 14  2
  8 15  1
  9 16  1
 14 17  1
 15 18  2
 17 19  1
 17 20  2
 19 21  1
 21 22  2
 21 23  1
 23 24  2
 23 25  1
 24 26  1
 25 27  2
 26 28  2
 26 29  1
 27 30  1
 29 31  1
 29 32  1
 10 16  1
 11 12  2
 18 20  1
 27 28  1
 31 32  1
M  END
> <COMPOUND_NAMES>
Example 676 (Page No: 758)

> <Reference>
WO2019148005

> <IC50_range_nM>
<100

> <smiles>
Cc1cc(C(Nc2cccc(c2)C2(COC2)C(c2nncn2C)(F)F)=O)nc(C2CC2)n1

$$$$
C22H24N6O3
  MOLSOFT 03092310482D

 31 35  0  0  0  0  0  0  0  0999 V2000
    0.0000   -0.0000    0.0000 O   0  0  0
    1.2866    0.7554    0.0000 C   0  0  0
    1.2748    2.2662    0.0000 N   0  0  0
    2.5731    0.0236    0.0000 C   0  0  0
   -0.0354    3.0217    0.0000 C   0  0  0
    2.5613   -1.4636    0.0000 N   0  0  0
    3.8597    0.7790    0.0000 C   0  0  0
   -1.3456    2.2899    0.0000 C   0  0  0
   -0.0472    4.5325    0.0000 C   0  0  0
    3.8479   -2.1954    0.0000 C   0  0  0
    5.1463    0.0472    0.0000 C   0  0  0
   -2.6558    3.0453    0.0000 C   0  0  0
   -1.3574    5.2879    0.0000 C   0  0  0
    5.1345   -1.4400    0.0000 N   0  0  0
    3.8361   -3.6826    0.0000 C   0  0  0
    6.4328    0.8026    0.0000 O   0  0  0
   -2.6676    4.5561    0.0000 C   0  0  0
   -3.9659    2.3135    0.0000 C   0  0  0
    4.5679   -4.9692    0.0000 C   0  0  0
    3.0807   -4.9692    0.0000 C   0  0  0
    6.4210    2.3135    0.0000 C   0  0  0
   -4.3672    0.8734    0.0000 C   0  0  0
   -5.4295    2.7148    0.0000 C   0  0  0
   -3.9777    3.8243    0.0000 C   0  0  0
   -5.8309    1.2748    0.0000 O   0  0  0
   -5.2879    4.5915    0.0000 C   0  0  0
   -6.6689    3.9895    0.0000 N   0  0  0
   -5.4532    6.0905    0.0000 N   0  0  0
   -7.6840    5.1109    0.0000 N   0  0  0
   -6.9286    6.4092    0.0000 C   0  0  0
   -4.3554    7.1056    0.0000 C   0  0  0
  1  2  2
  2  3  1
  2  4  1
  3  5  1
  4  6  2
  4  7  1
  5  8  2
  5  9  1
  6 10  1
  7 11  2
  8 12  1
  9 13  2
 10 14  2
 10 15  1
 11 16  1
 12 17  2
 12 18  1
 15 19  1
 15 20  1
 16 21  1
 18 22  1
 18 23  1
 18 24  1
 22 25  1
 24 26  1
 26 27  2
 26 28  1
 27 29  1
 28 30  1
 28 31  1
 11 14  1
 13 17  1
 19 20  1
 23 25  1
 29 30  2
M  END
> <COMPOUND_NAMES>
Example 342 (Page No: 532)

> <Reference>
WO2019148005

> <IC50_range_nM>
<100

> <smiles>
Cn1cnnc1CC1(COC1)c1cccc(c1)NC(c1cc(nc(C2CC2)n1)OC)=O

$$$$
C24H28N6O3
  MOLSOFT 03092310482D

 33 37  0  0  0  0  0  0  0  0999 V2000
    0.0000   -0.0000    0.0000 O   0  0  0
    1.4362    0.4003    0.0000 C   0  0  0
    1.8130    1.8600    0.0000 N   0  0  0
    2.4840   -0.6475    0.0000 C   0  0  0
    0.7417    2.9313    0.0000 C   0  0  0
    2.0837   -2.0837    0.0000 N   0  0  0
    3.9202   -0.2472    0.0000 C   0  0  0
    1.1184    4.3911    0.0000 C   0  0  0
   -0.7181    2.5546    0.0000 C   0  0  0
    3.1315   -3.1315    0.0000 C   0  0  0
    4.9680   -1.2950    0.0000 C   0  0  0
    0.0471    5.4624    0.0000 C   0  0  0
   -1.7894    3.6259    0.0000 C   0  0  0
    4.5677   -2.7312    0.0000 N   0  0  0
    2.7312   -4.5677    0.0000 C   0  0  0
    6.4042   -0.8947    0.0000 C   0  0  0
    0.4238    6.9222    0.0000 O   0  0  0
   -1.4127    5.0857    0.0000 C   0  0  0
   -3.2492    3.2492    0.0000 C   0  0  0
    3.1079   -6.0040    0.0000 C   0  0  0
    1.6599   -5.6155    0.0000 C   0  0  0
   -0.6475    7.9935    0.0000 C   0  0  0
   -3.2610    1.7659    0.0000 C   0  0  0
   -4.7561    3.2610    0.0000 C   0  0  0
   -2.8725    4.7090    0.0000 C   0  0  0
   -0.2708    9.4533    0.0000 C   0  0  0
   -4.7678    1.7776    0.0000 O   0  0  0
   -3.9438    5.7803    0.0000 C   0  0  0
   -5.4271    5.5566    0.0000 N   0  0  0
   -3.7201    7.2636    0.0000 N   0  0  0
   -6.1217    6.8987    0.0000 N   0  0  0
   -5.0622    7.9582    0.0000 C   0  0  0
   -2.4016    7.9582    0.0000 C   0  0  0
  1  2  2
  2  3  1
  2  4  1
  3  5  1
  4  6  2
  4  7  1
  5  8  2
  5  9  1
  6 10  1
  7 11  2
  8 12  1
  9 13  2
 10 14  2
 10 15  1
 11 16  1
 12 17  1
 12 18  2
 13 19  1
 15 20  1
 15 21  1
 17 22  1
 19 23  1
 19 24  1
 19 25  1
 22 26  1
 23 27  1
 25 28  1
 28 29  2
 28 30  1
 29 31  1
 30 32  1
 30 33  1
 11 14  1
 13 18  1
 20 21  1
 24 27  1
 31 32  2
M  END
> <COMPOUND_NAMES>
Example 690 (Page No: 767)

> <Reference>
WO2019148005

> <IC50_range_nM>
<100

> <smiles>
CCOc1cc(cc(c1)NC(c1cc(C)nc(C2CC2)n1)=O)C1(Cc2nncn2C)COC1

$$$$
C23H24N6O
  MOLSOFT 03092310482D

 30 34  0  0  0  0  0  0  0  0999 V2000
    0.0000   -0.0000    0.0000 O   0  0  0
    1.2873   -0.7322    0.0000 C   0  0  0
    2.5746    0.0236    0.0000 N   0  0  0
    1.2755   -2.2203    0.0000 C   0  0  0
    2.5628    1.5353    0.0000 C   0  0  0
   -0.0354   -2.9643    0.0000 N   0  0  0
    2.5628   -2.9643    0.0000 C   0  0  0
    1.2519    2.2911    0.0000 C   0  0  0
    3.8500    2.2911    0.0000 C   0  0  0
   -0.0472   -4.4523    0.0000 C   0  0  0
    2.5509   -4.4523    0.0000 C   0  0  0
    1.2400    3.8028    0.0000 C   0  0  0
    3.8382    3.8028    0.0000 C   0  0  0
    1.2400   -5.1846    0.0000 N   0  0  0
   -1.3581   -5.1846    0.0000 C   0  0  0
    3.8382   -5.1846    0.0000 C   0  0  0
   -0.0709    4.5586    0.0000 C   0  0  0
    2.5273    4.5586    0.0000 C   0  0  0
   -2.1140   -6.4718    0.0000 C   0  0  0
   -2.8698   -5.1728    0.0000 C   0  0  0
   -0.2362    6.0585    0.0000 C   0  0  0
   -1.4526    3.9563    0.0000 C   0  0  0
    0.8621    7.0742    0.0000 C   0  0  0
   -1.7124    6.3774    0.0000 C   0  0  0
   -2.4683    5.0783    0.0000 C   0  0  0
    2.3147    6.7789    0.0000 N   0  0  0
    0.6968    8.5740    0.0000 N   0  0  0
    3.0470    8.0898    0.0000 N   0  0  0
    2.0549    9.1999    0.0000 C   0  0  0
   -0.6141    9.3417    0.0000 C   0  0  0
  1  2  2
  2  3  1
  2  4  1
  3  5  1
  4  6  2
  4  7  1
  5  8  2
  5  9  1
  6 10  1
  7 11  2
  8 12  1
  9 13  2
 10 14  2
 10 15  1
 11 16  1
 12 17  1
 12 18  2
 15 19  1
 15 20  1
 17 21  2
 17 22  1
 21 23  1
 21 24  1
 22 25  1
 23 26  2
 23 27  1
 26 28  1
 27 29  1
 27 30  1
 11 14  1
 13 18  1
 19 20  1
 24 25  1
 28 29  2
M  END
> <COMPOUND_NAMES>
Example 518 (Page No: 659)

> <Reference>
WO2019148005

> <IC50_range_nM>
101-300

> <smiles>
Cc1cc(C(Nc2cccc(c2)C2CCCC=2c2nncn2C)=O)nc(C2CC2)n1

$$$$
C24H29N7O2
  MOLSOFT 03092310482D

 33 37  0  0  0  0  0  0  0  0999 V2000
    0.0000   -0.0000    0.0000 O   0  0  0
   -0.4007   -1.4380    0.0000 C   0  0  0
   -1.8623   -1.8151    0.0000 N   0  0  0
    0.6483   -2.4870    0.0000 C   0  0  0
   -2.9349   -0.7426    0.0000 C   0  0  0
    2.0862   -2.0862    0.0000 N   0  0  0
    0.2475   -3.9249    0.0000 C   0  0  0
   -4.3964   -1.1197    0.0000 C   0  0  0
   -2.5577    0.7190    0.0000 C   0  0  0
    3.1352   -3.1352    0.0000 C   0  0  0
    1.2965   -4.9739    0.0000 C   0  0  0
   -5.4690   -0.0471    0.0000 C   0  0  0
   -3.6303    1.7916    0.0000 C   0  0  0
    2.7345   -4.5732    0.0000 N   0  0  0
    4.5732   -2.7345    0.0000 C   0  0  0
    0.8958   -6.4119    0.0000 C   0  0  0
   -5.0918    1.4144    0.0000 C   0  0  0
   -6.9305   -0.4243    0.0000 C   0  0  0
    5.6222   -1.6619    0.0000 C   0  0  0
    6.0112   -3.1117    0.0000 C   0  0  0
    1.9448   -7.4609    0.0000 N   0  0  0
   -6.9423   -1.9094    0.0000 C   0  0  0
   -8.4392   -0.4125    0.0000 C   0  0  0
   -6.5534    1.0372    0.0000 C   0  0  0
    1.5440   -8.8989    0.0000 C   0  0  0
    3.3828   -7.0602    0.0000 C   0  0  0
   -8.4510   -1.8976    0.0000 O   0  0  0
   -7.6259    2.1098    0.0000 C   0  0  0
   -9.1110    1.8859    0.0000 N   0  0  0
   -7.4020    3.5949    0.0000 N   0  0  0
   -9.8065    3.2295    0.0000 N   0  0  0
   -8.7457    4.2903    0.0000 C   0  0  0
   -6.0819    4.2903    0.0000 C   0  0  0
  1  2  2
  2  3  1
  2  4  1
  3  5  1
  4  6  2
  4  7  1
  5  8  2
  5  9  1
  6 10  1
  7 11  2
  8 12  1
  9 13  2
 10 14  2
 10 15  1
 11 16  1
 12 17  2
 12 18  1
 15 19  1
 15 20  1
 16 21  1
 18 22  1
 18 23  1
 18 24  1
 21 25  1
 21 26  1
 22 27  1
 24 28  1
 28 29  2
 28 30  1
 29 31  1
 30 32  1
 30 33  1
 11 14  1
 13 17  1
 19 20  1
 23 27  1
 31 32  2
M  END
> <COMPOUND_NAMES>
Example 503 (Page No: 648)

> <Reference>
WO2019148005

> <IC50_range_nM>
<100

> <smiles>
CN(C)Cc1cc(C(Nc2cccc(c2)C2(Cc3nncn3C)COC2)=O)nc(C2CC2)n1

$$$$
C25H29N7O2
  MOLSOFT 03092310482D

 34 39  0  0  0  0  0  0  0  0999 V2000
    0.0000   -0.0000    0.0000 O   0  0  0
    1.2843   -0.7305    0.0000 C   0  0  0
    2.5687    0.0236    0.0000 N   0  0  0
    1.2725   -2.2152    0.0000 C   0  0  0
    2.5569    1.5318    0.0000 C   0  0  0
    2.5569   -2.9457    0.0000 N   0  0  0
   -0.0353   -2.9457    0.0000 C   0  0  0
    1.2490    2.2859    0.0000 C   0  0  0
    3.8412    2.2859    0.0000 C   0  0  0
    2.5451   -4.4303    0.0000 C   0  0  0
   -0.0471   -4.4303    0.0000 C   0  0  0
    1.2372    3.7941    0.0000 C   0  0  0
    3.8294    3.7941    0.0000 C   0  0  0
    1.2372   -5.1609    0.0000 N   0  0  0
    3.8294   -5.1609    0.0000 C   0  0  0
   -1.3550   -5.1609    0.0000 C   0  0  0
    2.5215    4.5482    0.0000 C   0  0  0
   -0.0707    4.5482    0.0000 C   0  0  0
    5.3140   -5.1491    0.0000 C   0  0  0
    4.5599   -6.4452    0.0000 C   0  0  0
   -2.6629   -4.4068    0.0000 N   0  0  0
   -1.5318    4.1711    0.0000 C   0  0  0
   -0.4713    6.0092    0.0000 C   0  0  0
    1.2136    5.3140    0.0000 C   0  0  0
   -4.1240   -4.7838    0.0000 C   0  0  0
   -3.0635   -2.9457    0.0000 C   0  0  0
   -1.9324    5.6322    0.0000 O   0  0  0
    1.2018    6.8222    0.0000 C   0  0  0
   -4.5246   -3.3228    0.0000 C   0  0  0
    2.4037    7.7177    0.0000 N   0  0  0
   -0.0236    7.7177    0.0000 N   0  0  0
    1.9324    9.1552    0.0000 N   0  0  0
    0.4242    9.1552    0.0000 C   0  0  0
   -1.4611    7.2700    0.0000 C   0  0  0
  1  2  2
  2  3  1
  2  4  1
  3  5  1
  4  6  2
  4  7  1
  5  8  2
  5  9  1
  6 10  1
  7 11  2
  8 12  1
  9 13  2
 10 14  2
 10 15  1
 11 16  1
 12 17  2
 12 18  1
 15 19  1
 15 20  1
 16 21  1
 18 22  1
 18 23  1
 18 24  1
 21 25  1
 21 26  1
 22 27  1
 24 28  1
 25 29  1
 28 30  2
 28 31  1
 30 32  1
 31 33  1
 31 34  1
 11 14  1
 13 17  1
 19 20  1
 23 27  1
 26 29  1
 32 33  2
M  END
> <COMPOUND_NAMES>
Example 504 (Page No: 649)

> <Reference>
WO2019148005

> <IC50_range_nM>
<100

> <smiles>
Cn1cnnc1CC1(COC1)c1cccc(c1)NC(c1cc(CN2CCC2)nc(C2CC2)n1)=O

$$$$
C27H33N7O2
  MOLSOFT 03092310482D

 36 41  0  0  0  0  0  0  0  0999 V2000
    0.0000   -0.0000    0.0000 O   0  0  0
    1.2847   -0.7307    0.0000 C   0  0  0
    2.5693    0.0236    0.0000 N   0  0  0
    1.2729   -2.2157    0.0000 C   0  0  0
    2.5575    1.5322    0.0000 C   0  0  0
    2.5575   -2.9465    0.0000 N   0  0  0
   -0.0354   -2.9465    0.0000 C   0  0  0
    1.2493    2.2865    0.0000 C   0  0  0
    3.8422    2.2865    0.0000 C   0  0  0
    2.5457   -4.4315    0.0000 C   0  0  0
   -0.0471   -4.4315    0.0000 C   0  0  0
    1.2375    3.7950    0.0000 C   0  0  0
    3.8304    3.7950    0.0000 C   0  0  0
    1.2375   -5.1622    0.0000 N   0  0  0
    3.8304   -5.1622    0.0000 C   0  0  0
   -1.3554   -5.1622    0.0000 C   0  0  0
    2.5222    4.5493    0.0000 C   0  0  0
   -0.0707    4.5493    0.0000 C   0  0  0
    5.3154   -5.1504    0.0000 C   0  0  0
    4.5729   -6.4469    0.0000 C   0  0  0
   -2.6636   -4.4079    0.0000 N   0  0  0
   -1.5322    4.1722    0.0000 C   0  0  0
   -0.4714    6.0108    0.0000 C   0  0  0
    1.2139    5.3154    0.0000 C   0  0  0
   -3.9718   -5.1386    0.0000 C   0  0  0
   -2.6754   -2.8993    0.0000 C   0  0  0
   -1.9329    5.6336    0.0000 O   0  0  0
    1.2022    6.8240    0.0000 C   0  0  0
   -5.2801   -4.3843    0.0000 C   0  0  0
   -3.9836   -2.1450    0.0000 C   0  0  0
    2.4043    7.7197    0.0000 N   0  0  0
   -0.0236    7.7197    0.0000 N   0  0  0
   -5.2918   -2.8757    0.0000 C   0  0  0
    1.9329    9.1576    0.0000 N   0  0  0
    0.4243    9.1576    0.0000 C   0  0  0
   -1.4614    7.2719    0.0000 C   0  0  0
  1  2  2
  2  3  1
  2  4  1
  3  5  1
  4  6  2
  4  7  1
  5  8  2
  5  9  1
  6 10  1
  7 11  2
  8 12  1
  9 13  2
 10 14  2
 10 15  1
 11 16  1
 12 17  2
 12 18  1
 15 19  1
 15 20  1
 16 21  1
 18 22  1
 18 23  1
 18 24  1
 21 25  1
 21 26  1
 22 27  1
 24 28  1
 25 29  1
 26 30  1
 28 31  2
 28 32  1
 29 33  1
 31 34  1
 32 35  1
 32 36  1
 11 14  1
 13 17  1
 19 20  1
 23 27  1
 30 33  1
 34 35  2
M  END
> <COMPOUND_NAMES>
Example 589 (Page No: 710)

> <Reference>
WO2019148005

> <IC50_range_nM>
<100

> <smiles>
Cn1cnnc1CC1(COC1)c1cccc(c1)NC(c1cc(CN2CCCCC2)nc(C2CC2)n1)=O

$$$$
C27H33N7O2
  MOLSOFT 03092310482D

 36 41  0  0  0  0  0  0  0  0999 V2000
    0.0000   -0.0000    0.0000 O   0  0  0
    1.2858    0.7550    0.0000 C   0  0  0
    1.2740    2.2649    0.0000 N   0  0  0
    2.5716    0.0236    0.0000 C   0  0  0
   -0.0354    3.0199    0.0000 C   0  0  0
    2.5598   -1.4628    0.0000 N   0  0  0
    3.8574    0.7786    0.0000 C   0  0  0
   -1.3448    2.2885    0.0000 C   0  0  0
   -0.0472    4.5298    0.0000 C   0  0  0
    3.8456   -2.1941    0.0000 C   0  0  0
    5.1432    0.0472    0.0000 C   0  0  0
   -2.6542    3.0435    0.0000 C   0  0  0
   -1.3566    5.2848    0.0000 C   0  0  0
    5.1314   -1.4392    0.0000 N   0  0  0
    3.8338   -3.6805    0.0000 C   0  0  0
    6.4290    0.8022    0.0000 C   0  0  3
   -2.6660    4.5534    0.0000 C   0  0  0
   -3.9636    2.3121    0.0000 C   0  0  0
    4.5652   -4.9663    0.0000 C   0  0  0
    3.0789   -4.9663    0.0000 C   0  0  0
    6.4172    2.3121    0.0000 N   0  0  0
    7.7148    0.0708    0.0000 C   0  0  0
   -4.3647    0.8729    0.0000 C   0  0  0
   -5.4263    2.7132    0.0000 C   0  0  0
   -3.9754    3.8220    0.0000 C   0  0  0
    5.1904    3.2086    0.0000 C   0  0  0
    7.6205    3.2086    0.0000 C   0  0  0
   -5.8274    1.2740    0.0000 O   0  0  0
   -5.2848    4.5888    0.0000 C   0  0  0
    5.6387    4.6478    0.0000 C   0  0  0
    7.1486    4.6478    0.0000 C   0  0  0
   -6.6650    3.9872    0.0000 N   0  0  0
   -5.4499    6.0869    0.0000 N   0  0  0
   -7.6794    5.1078    0.0000 N   0  0  0
   -6.9245    6.4054    0.0000 C   0  0  0
   -4.3529    7.1014    0.0000 C   0  0  0
  1  2  2
  2  3  1
  2  4  1
  3  5  1
  4  6  2
  4  7  1
  5  8  2
  5  9  1
  6 10  1
  7 11  2
  8 12  1
  9 13  2
 10 14  2
 10 15  1
 16 11  1
 12 17  2
 12 18  1
 15 19  1
 15 20  1
 16 21  1
 16 22  1
 18 23  1
 18 24  1
 18 25  1
 21 26  1
 21 27  1
 23 28  1
 25 29  1
 26 30  1
 27 31  1
 29 32  2
 29 33  1
 32 34  1
 33 35  1
 33 36  1
 11 14  1
 13 17  1
 19 20  1
 24 28  1
 30 31  1
 34 35  2
M  END
> <COMPOUND_NAMES>
Example 593 (+/-) (Page No: 713)

> <Reference>
WO2019148005

> <IC50_range_nM>
<100

> <smiles>
CC(c1cc(C(Nc2cccc(c2)C2(Cc3nncn3C)COC2)=O)nc(C2CC2)n1)N1CCCC1

$$$$
C26H31N7O3
  MOLSOFT 03092310482D

 36 41  0  0  1  0  0  0  0  0999 V2000
    0.0000   -0.0000    0.0000 O   0  0  0
    1.2843   -0.7305    0.0000 C   0  0  0
    2.5685    0.0236    0.0000 N   0  0  0
    1.2725   -2.2151    0.0000 C   0  0  0
    2.5568    1.5317    0.0000 C   0  0  0
    2.5568   -2.9573    0.0000 N   0  0  0
   -0.0353   -2.9573    0.0000 C   0  0  0
    1.2489    2.2858    0.0000 C   0  0  0
    3.8410    2.2858    0.0000 C   0  0  0
    2.5450   -4.4419    0.0000 C   0  0  0
   -0.0471   -4.4419    0.0000 C   0  0  0
    1.2371    3.7939    0.0000 C   0  0  0
    3.8292    3.7939    0.0000 C   0  0  0
    1.2371   -5.1724    0.0000 N   0  0  0
    3.8292   -5.1724    0.0000 C   0  0  0
   -1.3550   -5.1724    0.0000 C   0  0  0
    2.5214    4.5480    0.0000 C   0  0  0
   -0.0707    4.5480    0.0000 C   0  0  0
    5.3138   -5.1606    0.0000 C   0  0  0
    4.5597   -6.4567    0.0000 C   0  0  0
   -2.6628   -4.4184    0.0000 N   0  0  0
   -1.5317    4.1709    0.0000 C   0  0  0
   -0.4713    6.0090    0.0000 C   0  0  0
    1.2136    5.3138    0.0000 C   0  0  0
   -2.8277   -2.9220    0.0000 C   0  0  0
   -4.0413   -5.0192    0.0000 C   0  0  0
   -1.9323    5.6319    0.0000 O   0  0  0
    1.2018    6.8219    0.0000 C   0  0  0
   -4.3005   -2.6039    0.0000 C   0  0  2
   -5.0546   -3.8999    0.0000 C   0  0  0
    2.4036    7.7174    0.0000 N   0  0  0
   -0.0236    7.7174    0.0000 N   0  0  0
   -4.9250   -1.2254    0.0000 O   0  0  0
    1.9323    9.1548    0.0000 N   0  0  0
    0.4242    9.1548    0.0000 C   0  0  0
   -1.4610    7.2697    0.0000 C   0  0  0
  1  2  2
  2  3  1
  2  4  1
  3  5  1
  4  6  2
  4  7  1
  5  8  2
  5  9  1
  6 10  1
  7 11  2
  8 12  1
  9 13  2
 10 14  2
 10 15  1
 11 16  1
 12 17  2
 12 18  1
 15 19  1
 15 20  1
 16 21  1
 18 22  1
 18 23  1
 18 24  1
 21 25  1
 21 26  1
 22 27  1
 24 28  1
 29 25  1
 26 30  1
 28 31  2
 28 32  1
 29 33  1  6  0
 31 34  1
 32 35  1
 32 36  1
 11 14  1
 13 17  1
 19 20  1
 23 27  1
 29 30  1
 34 35  2
M  END
> <COMPOUND_NAMES>
Example 505 (S) (Page No: 649)

> <Reference>
WO2019148005

> <IC50_range_nM>
<100

> <smiles>
Cn1cnnc1CC1(COC1)c1cccc(c1)NC(c1cc(CN2CC[C@@H](C2)O)nc(C2CC2)n1)=O

$$$$
C26H30FN7O2
  MOLSOFT 03092310482D

 36 41  0  0  1  0  0  0  0  0999 V2000
    0.0000   -0.0000    0.0000 F   0  0  0
    0.6020   -1.3574    0.0000 C   0  0  2
    2.0539   -1.6525    0.0000 C   0  0  0
   -0.1534   -2.6441    0.0000 C   0  0  0
    2.1955   -3.1280    0.0000 N   0  0  0
    0.8381   -3.7418    0.0000 C   0  0  0
    3.4821   -3.8598    0.0000 C   0  0  0
    4.7687   -3.1044    0.0000 C   0  0  0
    6.0554   -3.8362    0.0000 N   0  0  0
    4.7569   -1.5935    0.0000 C   0  0  0
    7.3420   -3.0808    0.0000 C   0  0  0
    6.0436   -0.8381    0.0000 C   0  0  0
    7.3302   -1.5699    0.0000 N   0  0  0
    8.6286   -3.8126    0.0000 C   0  0  0
    6.0317    0.6728    0.0000 C   0  0  0
   10.1159   -3.8008    0.0000 C   0  0  0
    9.3604   -5.0992    0.0000 C   0  0  0
    4.7215    1.4283    0.0000 O   0  0  0
    7.3184    1.4283    0.0000 N   0  0  0
    7.3066    2.9392    0.0000 C   0  0  0
    5.9963    3.6946    0.0000 C   0  0  0
    8.5932    3.6946    0.0000 C   0  0  0
    5.9845    5.2055    0.0000 C   0  0  0
    8.5814    5.2055    0.0000 C   0  0  0
    7.2712    5.9609    0.0000 C   0  0  0
    4.6743    5.9609    0.0000 C   0  0  0
    3.2106    5.5832    0.0000 C   0  0  0
    4.2730    7.4246    0.0000 C   0  0  0
    5.9609    6.7282    0.0000 C   0  0  0
    2.8093    7.0469    0.0000 O   0  0  0
    5.9491    8.2391    0.0000 C   0  0  0
    7.1531    9.1362    0.0000 N   0  0  0
    4.7215    9.1362    0.0000 N   0  0  0
    6.6810   10.5762    0.0000 N   0  0  0
    5.1701   10.5762    0.0000 C   0  0  0
    3.2815    8.6876    0.0000 C   0  0  0
  2  1  1  6  0
  2  3  1
  2  4  1
  3  5  1
  4  6  1
  5  7  1
  7  8  1
  8  9  2
  8 10  1
  9 11  1
 10 12  2
 11 13  2
 11 14  1
 12 15  1
 14 16  1
 14 17  1
 15 18  2
 15 19  1
 19 20  1
 20 21  2
 20 22  1
 21 23  1
 22 24  2
 23 25  2
 23 26  1
 26 27  1
 26 28  1
 26 29  1
 27 30  1
 29 31  1
 31 32  2
 31 33  1
 32 34  1
 33 35  1
 33 36  1
  5  6  1
 12 13  1
 16 17  1
 24 25  1
 28 30  1
 34 35  2
M  END
> <COMPOUND_NAMES>
Example 574 (S) (Page No: 700)

> <Reference>
WO2019148005

> <IC50_range_nM>
<100

> <smiles>
Cn1cnnc1CC1(COC1)c1cccc(c1)NC(c1cc(CN2CC[C@@H](C2)F)nc(C2CC2)n1)=O

$$$$
C24H25F4N7O2
  MOLSOFT 03092310482D

 37 41  0  0  1  0  0  0  0  0999 V2000
    0.0000   -0.0000    0.0000 F   0  0  0
    0.7307   -1.2846    0.0000 C   0  0  0
   -0.5775   -2.0152    0.0000 F   0  0  0
    1.4613   -2.5691    0.0000 F   0  0  0
    2.0152   -0.5303    0.0000 C   0  0  0
    2.0035    0.9782    0.0000 N   0  0  0
    3.2998   -1.2610    0.0000 N   0  0  0
    3.2880    1.7324    0.0000 C   0  0  0
    4.5844   -0.5068    0.0000 C   0  0  0
    3.2762    3.2409    0.0000 C   0  0  0
    4.5726    1.0017    0.0000 C   0  0  0
    5.8690   -1.2374    0.0000 C   0  0  0
    1.9681    4.0069    0.0000 O   0  0  0
    4.5608    4.0069    0.0000 N   0  0  0
    5.8572   -2.7223    0.0000 N   0  0  0
    4.5490    5.5154    0.0000 C   0  0  0
    4.6315   -3.5944    0.0000 C   0  0  0
    7.0592   -3.5944    0.0000 C   0  0  0
    3.2409    6.2696    0.0000 C   0  0  0
    5.8336    6.2696    0.0000 C   0  0  0
    5.0794   -5.0086    0.0000 C   0  0  2
    6.5878   -5.0086    0.0000 C   0  0  0
    3.2291    7.7781    0.0000 C   0  0  0
    5.8218    7.7781    0.0000 C   0  0  0
    4.1837   -6.2107    0.0000 F   0  0  0
    4.5137    8.5442    0.0000 C   0  0  0
    1.9210    8.5442    0.0000 C   0  0  0
    0.4596    8.1670    0.0000 C   0  0  0
    1.5203   10.0055    0.0000 C   0  0  0
    3.2055    9.2984    0.0000 C   0  0  0
    0.0589    9.6284    0.0000 O   0  0  0
    3.1937   10.8069    0.0000 C   0  0  0
    4.3958   11.7026    0.0000 N   0  0  0
    1.9681   11.7026    0.0000 N   0  0  0
    3.9244   13.1403    0.0000 N   0  0  0
    2.4159   13.1403    0.0000 C   0  0  0
    0.5303   11.2547    0.0000 C   0  0  0
  1  2  1
  2  3  1
  2  4  1
  2  5  1
  5  6  2
  5  7  1
  6  8  1
  7  9  2
  8 10  1
  8 11  2
  9 12  1
 10 13  2
 10 14  1
 12 15  1
 14 16  1
 15 17  1
 15 18  1
 16 19  2
 16 20  1
 21 17  1
 18 22  1
 19 23  1
 20 24  2
 21 25  1  6  0
 23 26  2
 23 27  1
 27 28  1
 27 29  1
 27 30  1
 28 31  1
 30 32  1
 32 33  2
 32 34  1
 33 35  1
 34 36  1
 34 37  1
  9 11  1
 21 22  1
 24 26  1
 29 31  1
 35 36  2
M  END
> <COMPOUND_NAMES>
Example 699 (S) (Page No: 776)

> <Reference>
WO2019148005

> <IC50_range_nM>
<100

> <smiles>
Cn1cnnc1CC1(COC1)c1cccc(c1)NC(c1cc(CN2CC[C@@H](C2)F)nc(C(F)(F)F)n1)=O

$$$$
C26H30FN7O2
  MOLSOFT 03092310482D

 36 41  0  0  0  0  0  0  0  0999 V2000
    0.0000   -0.0000    0.0000 F   0  0  0
   -1.0678    1.0678    0.0000 C   0  0  0
   -1.0795    2.5697    0.0000 C   0  0  0
   -2.5697    1.0795    0.0000 C   0  0  0
   -2.5815    2.5815    0.0000 N   0  0  0
   -3.6493    3.6493    0.0000 C   0  0  3
   -3.2738    5.1043    0.0000 C   0  0  0
   -5.1043    3.2738    0.0000 C   0  0  0
   -1.8422    5.5032    0.0000 N   0  0  0
   -4.3416    6.1721    0.0000 C   0  0  0
   -1.4668    6.9583    0.0000 C   0  0  0
   -3.9661    7.6271    0.0000 C   0  0  0
   -2.5345    8.0261    0.0000 N   0  0  0
   -0.0352    7.3572    0.0000 C   0  0  0
   -5.0339    8.6949    0.0000 C   0  0  0
    1.0091    8.4250    0.0000 C   0  0  0
    1.3963    6.9817    0.0000 C   0  0  0
   -4.6584   10.1499    0.0000 O   0  0  0
   -6.4889    8.3194    0.0000 N   0  0  0
   -7.5567    9.3872    0.0000 C   0  0  0
   -9.0117    9.0117    0.0000 C   0  0  0
   -7.1812   10.8422    0.0000 C   0  0  0
  -10.0795   10.0795    0.0000 C   0  0  0
   -8.2490   11.9100    0.0000 C   0  0  0
   -9.7040   11.5345    0.0000 C   0  0  0
  -11.5345    9.7040    0.0000 C   0  0  0
  -11.5463    8.2255    0.0000 C   0  0  0
  -13.0365    9.7158    0.0000 C   0  0  0
  -11.1590   11.1590    0.0000 C   0  0  0
  -13.0482    8.2373    0.0000 O   0  0  0
  -12.2268   12.2268    0.0000 C   0  0  0
  -13.7053   12.0039    0.0000 N   0  0  0
  -12.0039   13.7053    0.0000 N   0  0  0
  -14.3976   13.3416    0.0000 N   0  0  0
  -13.3416   14.3976    0.0000 C   0  0  0
  -10.6897   14.3976    0.0000 C   0  0  0
  1  2  1
  2  3  1
  2  4  1
  3  5  1
  6  5  1
  6  7  1
  6  8  1
  7  9  2
  7 10  1
  9 11  1
 10 12  2
 11 13  2
 11 14  1
 12 15  1
 14 16  1
 14 17  1
 15 18  2
 15 19  1
 19 20  1
 20 21  2
 20 22  1
 21 23  1
 22 24  2
 23 25  2
 23 26  1
 26 27  1
 26 28  1
 26 29  1
 27 30  1
 29 31  1
 31 32  2
 31 33  1
 32 34  1
 33 35  1
 33 36  1
  4  5  1
 12 13  1
 16 17  1
 24 25  1
 28 30  1
 34 35  2
M  END
> <COMPOUND_NAMES>
Example 538 (+/-) (Page No: 673)

> <Reference>
WO2019148005

> <IC50_range_nM>
<100

> <smiles>
CC(c1cc(C(Nc2cccc(c2)C2(Cc3nncn3C)COC2)=O)nc(C2CC2)n1)N1CC(C1)F

$$$$
C27H31FN6O2
  MOLSOFT 03092310482D

 36 41  0  0  1  0  0  0  0  0999 V2000
    0.0000   -0.0000    0.0000 F   0  0  0
    0.6021   -1.3576    0.0000 C   0  0  2
    2.0541   -1.6527    0.0000 C   0  0  0
   -0.1535   -2.6443    0.0000 C   0  0  0
    2.1957   -3.1283    0.0000 N   0  0  0
    0.8382   -3.7422    0.0000 C   0  0  0
    3.4825   -3.8602    0.0000 C   0  0  0
    4.7692   -3.1047    0.0000 C   0  0  0
    4.7574   -1.5937    0.0000 C   0  0  0
    6.0559   -3.8366    0.0000 C   0  0  0
    6.0441   -0.8382    0.0000 C   0  0  0
    7.3427   -3.0811    0.0000 C   0  0  0
    7.3309   -1.5819    0.0000 N   0  0  0
    6.0323    0.6729    0.0000 C   0  0  0
    8.6294   -3.8130    0.0000 C   0  0  0
    4.7220    1.4284    0.0000 O   0  0  0
    7.3191    1.4284    0.0000 N   0  0  0
   10.1168   -3.8012    0.0000 C   0  0  0
    9.3613   -5.0997    0.0000 C   0  0  0
    7.3073    2.9394    0.0000 C   0  0  0
    5.9969    3.6950    0.0000 C   0  0  0
    8.5940    3.6950    0.0000 C   0  0  0
    5.9851    5.2060    0.0000 C   0  0  0
    8.5822    5.2060    0.0000 C   0  0  0
    7.2719    5.9615    0.0000 C   0  0  0
    4.6748    5.9615    0.0000 C   0  0  0
    3.2109    5.5837    0.0000 C   0  0  0
    4.2734    7.4253    0.0000 C   0  0  0
    5.9615    6.7288    0.0000 C   0  0  0
    2.8096    7.0476    0.0000 O   0  0  0
    5.9497    8.2399    0.0000 C   0  0  0
    7.1538    9.1370    0.0000 N   0  0  0
    4.7220    9.1370    0.0000 N   0  0  0
    6.6816   10.5772    0.0000 N   0  0  0
    5.1706   10.5772    0.0000 C   0  0  0
    3.2818    8.6884    0.0000 C   0  0  0
  2  1  1  6  0
  2  3  1
  2  4  1
  3  5  1
  4  6  1
  5  7  1
  7  8  1
  8  9  2
  8 10  1
  9 11  1
 10 12  2
 11 13  2
 11 14  1
 12 15  1
 14 16  2
 14 17  1
 15 18  1
 15 19  1
 17 20  1
 20 21  2
 20 22  1
 21 23  1
 22 24  2
 23 25  2
 23 26  1
 26 27  1
 26 28  1
 26 29  1
 27 30  1
 29 31  1
 31 32  2
 31 33  1
 32 34  1
 33 35  1
 33 36  1
  5  6  1
 12 13  1
 18 19  1
 24 25  1
 28 30  1
 34 35  2
M  END
> <COMPOUND_NAMES>
Example 496 (S) (Page No: 642)

> <Reference>
WO2019148005

> <IC50_range_nM>
<100

> <smiles>
Cn1cnnc1CC1(COC1)c1cccc(c1)NC(c1cc(CN2CC[C@@H](C2)F)cc(C2CC2)n1)=O

$$$$
C28H34N6O3
  MOLSOFT 03092310482D

 37 42  0  0  1  0  0  0  0  0999 V2000
    0.0000   -0.0000    0.0000 O   0  0  0
   -0.0118   -1.4881    0.0000 C   0  0  0
    1.2755   -2.2321    0.0000 N   0  0  0
   -1.3227   -2.2321    0.0000 C   0  0  0
    2.5628   -1.4644    0.0000 C   0  0  0
   -1.3345   -3.7201    0.0000 N   0  0  0
   -2.6336   -1.4644    0.0000 C   0  0  0
    2.5509    0.0472    0.0000 C   0  0  0
    3.8500   -2.2085    0.0000 C   0  0  0
   -2.6454   -4.4523    0.0000 C   0  0  0
   -3.9445   -2.2085    0.0000 C   0  0  0
    3.8382    0.8149    0.0000 C   0  0  0
    5.1373   -1.4408    0.0000 C   0  0  0
   -3.9563   -3.6965    0.0000 C   0  0  0
   -2.6572   -5.9404    0.0000 C   0  0  0
   -5.2554   -1.4408    0.0000 C   0  0  0
    5.1255    0.0709    0.0000 C   0  0  0
    3.8264    2.3266    0.0000 C   0  0  0
   -1.9250   -7.2277    0.0000 C   0  0  0
   -3.4131   -7.2277    0.0000 C   0  0  0
   -6.5663   -2.1848    0.0000 N   0  0  0
    2.7517    3.4013    0.0000 C   0  0  0
    4.8775    3.4013    0.0000 C   0  0  0
    5.1137    1.5943    0.0000 C   0  0  0
   -7.8772   -1.4172    0.0000 C   0  0  0
   -6.5781   -3.6729    0.0000 C   0  0  0
    3.8028    4.4760    0.0000 O   0  0  0
    6.4010    2.3502    0.0000 C   0  0  0
   -9.1881   -2.1612    0.0000 C   0  0  2
   -7.8890   -4.4051    0.0000 C   0  0  0
    6.5427    3.8500    0.0000 N   0  0  0
    7.7591    1.7479    0.0000 N   0  0  0
   -9.1999   -3.6493    0.0000 O   0  0  0
  -10.4990   -1.3936    0.0000 C   0  0  0
    7.9953    4.1689    0.0000 N   0  0  0
    8.7512    2.8698    0.0000 C   0  0  0
    8.0544    0.2952    0.0000 C   0  0  0
  1  2  2
  2  3  1
  2  4  1
  3  5  1
  4  6  2
  4  7  1
  5  8  2
  5  9  1
  6 10  1
  7 11  2
  8 12  1
  9 13  2
 10 14  2
 10 15  1
 11 16  1
 12 17  2
 12 18  1
 15 19  1
 15 20  1
 16 21  1
 18 22  1
 18 23  1
 18 24  1
 21 25  1
 21 26  1
 22 27  1
 24 28  1
 29 25  1
 26 30  1
 28 31  2
 28 32  1
 29 33  1
 29 34  1  6  0
 31 35  1
 32 36  1
 32 37  1
 11 14  1
 13 17  1
 19 20  1
 23 27  1
 30 33  1
 35 36  2
M  END
> <COMPOUND_NAMES>
Example 501 (R) (Page No: 646)

> <Reference>
WO2019148005

> <IC50_range_nM>
<100

> <smiles>
C[C@@H]1CN(CCO1)Cc1cc(C2CC2)nc(c1)C(Nc1cccc(c1)C1(Cc2nncn2C)COC1)=O

$$$$
C29H34N6O2
  MOLSOFT 03092310482D

 37 43  0  0  0  0  0  0  0  0999 V2000
    0.0000   -0.0000    0.0000 O   0  0  0
    1.2843   -0.7305    0.0000 C   0  0  0
    2.5685    0.0236    0.0000 N   0  0  0
    1.2725   -2.2151    0.0000 C   0  0  0
    2.5567    1.5317    0.0000 C   0  0  0
    2.5567   -2.9573    0.0000 N   0  0  0
   -0.0353   -2.9573    0.0000 C   0  0  0
    1.2489    2.2857    0.0000 C   0  0  0
    3.8410    2.2857    0.0000 C   0  0  0
    2.5450   -4.4419    0.0000 C   0  0  0
   -0.0471   -4.4419    0.0000 C   0  0  0
    1.2371    3.7939    0.0000 C   0  0  0
    3.8292    3.7939    0.0000 C   0  0  0
    1.2371   -5.1724    0.0000 C   0  0  0
    3.8292   -5.1724    0.0000 C   0  0  0
   -1.3550   -5.1724    0.0000 C   0  0  0
    2.5214    4.5479    0.0000 C   0  0  0
   -0.0707    4.5479    0.0000 C   0  0  0
    5.3138   -5.1606    0.0000 C   0  0  0
    4.5597   -6.4567    0.0000 C   0  0  0
   -2.6628   -4.4183    0.0000 N   0  0  0
   -1.5317    4.1709    0.0000 C   0  0  0
   -0.4713    6.0089    0.0000 C   0  0  0
    1.2136    5.3138    0.0000 C   0  0  0
   -2.8277   -2.9220    0.0000 C   0  0  0
   -4.0413   -5.0192    0.0000 C   0  0  0
   -1.9323    5.6319    0.0000 O   0  0  0
    1.2018    6.8219    0.0000 C   0  0  0
   -4.3005   -2.6039    0.0000 C   0  0  0
   -5.0546   -3.8999    0.0000 C   0  0  0
    2.4036    7.7173    0.0000 N   0  0  0
   -0.0236    7.7173    0.0000 N   0  0  0
   -5.5259   -1.7084    0.0000 C   0  0  0
   -4.1591   -1.1075    0.0000 C   0  0  0
    1.9323    9.1548    0.0000 N   0  0  0
    0.4242    9.1548    0.0000 C   0  0  0
   -1.4610    7.2696    0.0000 C   0  0  0
  1  2  2
  2  3  1
  2  4  1
  3  5  1
  4  6  2
  4  7  1
  5  8  2
  5  9  1
  6 10  1
  7 11  2
  8 12  1
  9 13  2
 10 14  2
 10 15  1
 11 16  1
 12 17  2
 12 18  1
 15 19  1
 15 20  1
 16 21  1
 18 22  1
 18 23  1
 18 24  1
 21 25  1
 21 26  1
 22 27  1
 24 28  1
 25 29  1
 26 30  1
 28 31  2
 28 32  1
 29 33  1
 29 34  1
 31 35  1
 32 36  1
 32 37  1
 11 14  1
 13 17  1
 19 20  1
 23 27  1
 29 30  1
 33 34  1
 35 36  2
M  END
> <COMPOUND_NAMES>
Example 519 (Page No: 660)

> <Reference>
WO2019148005

> <IC50_range_nM>
<100

> <smiles>
Cn1cnnc1CC1(COC1)c1cccc(c1)NC(c1cc(CN2CCC3(CC3)C2)cc(C2CC2)n1)=O

$$$$
C29H35N7O2
  MOLSOFT 03092310482D

 38 44  0  0  1  0  0  0  0  0999 V2000
    0.0000   -0.0000    0.0000 O   0  0  0
    1.2859    0.7550    0.0000 C   0  0  0
    1.2741    2.2651    0.0000 N   0  0  0
    2.5718    0.0236    0.0000 C   0  0  0
   -0.0354    3.0201    0.0000 C   0  0  0
    2.5600   -1.4629    0.0000 N   0  0  0
    3.8577    0.7786    0.0000 C   0  0  0
   -1.3449    2.2887    0.0000 C   0  0  0
   -0.0472    4.5302    0.0000 C   0  0  0
    3.8459   -2.1943    0.0000 C   0  0  0
    5.1436    0.0472    0.0000 C   0  0  0
   -2.6544    3.0437    0.0000 C   0  0  0
   -1.3567    5.2852    0.0000 C   0  0  0
    5.1318   -1.4393    0.0000 N   0  0  0
    3.8341   -3.6808    0.0000 C   0  0  0
    6.4295    0.8022    0.0000 C   0  0  1
   -2.6662    4.5538    0.0000 C   0  0  0
   -3.9639    2.3123    0.0000 C   0  0  0
    4.5656   -4.9667    0.0000 C   0  0  0
    3.0791   -4.9667    0.0000 C   0  0  0
    6.4177    2.3123    0.0000 N   0  0  0
    7.7155    0.0708    0.0000 C   0  0  0
   -4.3650    0.8730    0.0000 C   0  0  0
   -5.4268    2.7134    0.0000 C   0  0  0
   -3.9757    3.8223    0.0000 C   0  0  0
    7.6211    3.2089    0.0000 C   0  0  0
    5.1908    3.2089    0.0000 C   0  0  0
   -5.8279    1.2741    0.0000 O   0  0  0
   -5.2852    4.5892    0.0000 C   0  0  0
    7.1492    4.6481    0.0000 C   0  0  0
    5.6391    4.6481    0.0000 C   0  0  0
   -6.6655    3.9875    0.0000 N   0  0  0
   -5.4504    6.0874    0.0000 N   0  0  0
    7.2908    6.1464    0.0000 C   0  0  0
    8.5059    5.2734    0.0000 C   0  0  0
   -7.6801    5.1082    0.0000 N   0  0  0
   -6.9250    6.4060    0.0000 C   0  0  0
   -4.3532    7.1020    0.0000 C   0  0  0
  1  2  2
  2  3  1
  2  4  1
  3  5  1
  4  6  2
  4  7  1
  5  8  2
  5  9  1
  6 10  1
  7 11  2
  8 12  1
  9 13  2
 10 14  2
 10 15  1
 16 11  1
 12 17  2
 12 18  1
 15 19  1
 15 20  1
 16 21  1  1  0
 16 22  1
 18 23  1
 18 24  1
 18 25  1
 21 26  1
 21 27  1
 23 28  1
 25 29  1
 26 30  1
 27 31  1
 29 32  2
 29 33  1
 30 34  1
 30 35  1
 32 36  1
 33 37  1
 33 38  1
 11 14  1
 13 17  1
 19 20  1
 24 28  1
 30 31  1
 34 35  1
 36 37  2
M  END
> <COMPOUND_NAMES>
Example 592a (S) (Page No: 711)

> <Reference>
WO2019148005

> <IC50_range_nM>
<100

> <smiles>
C[C@@H](c1cc(C(Nc2cccc(c2)C2(Cc3nncn3C)COC2)=O)nc(C2CC2)n1)N1CCC2(CC2)C1

$$$$
C29H35N7O2
  MOLSOFT 03092310482D

 38 44  0  0  1  0  0  0  0  0999 V2000
    0.0000   -0.0000    0.0000 O   0  0  0
    1.2859    0.7550    0.0000 C   0  0  0
    1.2741    2.2651    0.0000 N   0  0  0
    2.5718    0.0236    0.0000 C   0  0  0
   -0.0354    3.0201    0.0000 C   0  0  0
    2.5600   -1.4629    0.0000 N   0  0  0
    3.8577    0.7786    0.0000 C   0  0  0
   -1.3449    2.2887    0.0000 C   0  0  0
   -0.0472    4.5302    0.0000 C   0  0  0
    3.8459   -2.1943    0.0000 C   0  0  0
    5.1436    0.0472    0.0000 C   0  0  0
   -2.6544    3.0437    0.0000 C   0  0  0
   -1.3567    5.2852    0.0000 C   0  0  0
    5.1318   -1.4393    0.0000 N   0  0  0
    3.8341   -3.6808    0.0000 C   0  0  0
    6.4295    0.8022    0.0000 C   0  0  2
   -2.6662    4.5538    0.0000 C   0  0  0
   -3.9639    2.3123    0.0000 C   0  0  0
    4.5656   -4.9667    0.0000 C   0  0  0
    3.0791   -4.9667    0.0000 C   0  0  0
    6.4177    2.3123    0.0000 N   0  0  0
    7.7155    0.0708    0.0000 C   0  0  0
   -4.3650    0.8730    0.0000 C   0  0  0
   -5.4268    2.7134    0.0000 C   0  0  0
   -3.9757    3.8223    0.0000 C   0  0  0
    7.6211    3.2089    0.0000 C   0  0  0
    5.1908    3.2089    0.0000 C   0  0  0
   -5.8279    1.2741    0.0000 O   0  0  0
   -5.2852    4.5892    0.0000 C   0  0  0
    7.1492    4.6481    0.0000 C   0  0  0
    5.6391    4.6481    0.0000 C   0  0  0
   -6.6655    3.9875    0.0000 N   0  0  0
   -5.4504    6.0874    0.0000 N   0  0  0
    7.2908    6.1464    0.0000 C   0  0  0
    8.5059    5.2734    0.0000 C   0  0  0
   -7.6801    5.1082    0.0000 N   0  0  0
   -6.9250    6.4060    0.0000 C   0  0  0
   -4.3532    7.1020    0.0000 C   0  0  0
  1  2  2
  2  3  1
  2  4  1
  3  5  1
  4  6  2
  4  7  1
  5  8  2
  5  9  1
  6 10  1
  7 11  2
  8 12  1
  9 13  2
 10 14  2
 10 15  1
 16 11  1
 12 17  2
 12 18  1
 15 19  1
 15 20  1
 16 21  1  6  0
 16 22  1
 18 23  1
 18 24  1
 18 25  1
 21 26  1
 21 27  1
 23 28  1
 25 29  1
 26 30  1
 27 31  1
 29 32  2
 29 33  1
 30 34  1
 30 35  1
 32 36  1
 33 37  1
 33 38  1
 11 14  1
 13 17  1
 19 20  1
 24 28  1
 30 31  1
 34 35  1
 36 37  2
M  END
> <COMPOUND_NAMES>
Example 592b (R) (Page No: 711)

> <Reference>
WO2019148005

> <IC50_range_nM>
<100

> <smiles>
C[C@H](c1cc(C(Nc2cccc(c2)C2(Cc3nncn3C)COC2)=O)nc(C2CC2)n1)N1CCC2(CC2)C1

$$$$
C24H25N9O2
  MOLSOFT 03092310482D

 35 40  0  0  0  0  0  0  0  0999 V2000
    0.0000   -0.0000    0.0000 O   0  0  0
    1.2846   -0.7307    0.0000 C   0  0  0
    2.5691    0.0236    0.0000 N   0  0  0
    1.2728   -2.2156    0.0000 C   0  0  0
    2.5573    1.5320    0.0000 C   0  0  0
    2.5573   -2.9580    0.0000 N   0  0  0
   -0.0354   -2.9580    0.0000 C   0  0  0
    1.2492    2.2863    0.0000 C   0  0  0
    3.8419    2.2863    0.0000 C   0  0  0
    2.5455   -4.4429    0.0000 C   0  0  0
   -0.0471   -4.4429    0.0000 C   0  0  0
    1.2374    3.7947    0.0000 C   0  0  0
    3.8301    3.7947    0.0000 C   0  0  0
    1.2374   -5.1736    0.0000 N   0  0  0
    3.8301   -5.1736    0.0000 C   0  0  0
   -1.3553   -5.1736    0.0000 C   0  0  0
    2.5220    4.5490    0.0000 C   0  0  0
   -0.0707    4.5490    0.0000 C   0  0  0
    5.3150   -5.1618    0.0000 C   0  0  0
    4.5608   -6.4581    0.0000 C   0  0  0
   -2.6634   -4.4193    0.0000 N   0  0  0
   -1.5320    4.1719    0.0000 C   0  0  0
   -0.4714    6.0103    0.0000 C   0  0  0
    1.2138    5.3150    0.0000 C   0  0  0
   -2.8284   -2.9227    0.0000 N   0  0  0
   -4.0422   -5.0204    0.0000 C   0  0  0
   -1.9327    5.6332    0.0000 O   0  0  0
    1.2021    6.8235    0.0000 C   0  0  0
   -4.3015   -2.6045    0.0000 N   0  0  0
   -5.0557   -3.9008    0.0000 C   0  0  0
    2.4041    7.7191    0.0000 N   0  0  0
   -0.0236    7.7191    0.0000 N   0  0  0
    1.9327    9.1569    0.0000 N   0  0  0
    0.4243    9.1569    0.0000 C   0  0  0
   -1.4613    7.2713    0.0000 C   0  0  0
  1  2  2
  2  3  1
  2  4  1
  3  5  1
  4  6  2
  4  7  1
  5  8  2
  5  9  1
  6 10  1
  7 11  2
  8 12  1
  9 13  2
 10 14  2
 10 15  1
 11 16  1
 12 17  2
 12 18  1
 15 19  1
 15 20  1
 16 21  1
 18 22  1
 18 23  1
 18 24  1
 21 25  1
 21 26  1
 22 27  1
 24 28  1
 25 29  2
 26 30  2
 28 31  2
 28 32  1
 31 33  1
 32 34  1
 32 35  1
 11 14  1
 13 17  1
 19 20  1
 23 27  1
 29 30  1
 33 34  2
M  END
> <COMPOUND_NAMES>
Example 506 (Page No: 650)

> <Reference>
WO2019148005

> <IC50_range_nM>
<100

> <smiles>
Cn1cnnc1CC1(COC1)c1cccc(c1)NC(c1cc(Cn2ccnn2)nc(C2CC2)n1)=O

$$$$
C23H27N5O3
  MOLSOFT 03092310482D

 31 34  0  0  1  0  0  0  0  0999 V2000
    0.0000   -0.0000    0.0000 O   0  0  0
    1.2865   -0.7436    0.0000 C   0  0  0
    2.5731    0.0236    0.0000 N   0  0  0
    1.2747   -2.2308    0.0000 C   0  0  0
    2.5613    1.5344    0.0000 C   0  0  0
   -0.0354   -2.9626    0.0000 N   0  0  0
    2.5613   -2.9626    0.0000 C   0  0  0
    1.2511    2.2898    0.0000 C   0  0  0
    3.8478    2.2898    0.0000 C   0  0  0
   -0.0472   -4.4498    0.0000 C   0  0  0
    2.5495   -4.4498    0.0000 C   0  0  0
    1.2393    3.8006    0.0000 C   0  0  0
    3.8360    3.8006    0.0000 C   0  0  0
    1.2393   -5.1816    0.0000 C   0  0  0
    3.8360   -5.1816    0.0000 O   0  0  0
    2.5259    4.5678    0.0000 C   0  0  0
   -0.0708    4.5678    0.0000 C   0  0  2
    3.8242   -6.6688    0.0000 C   0  0  2
   -1.3810    3.8242    0.0000 C   0  0  0
   -0.0826    6.0786    0.0000 C   0  0  0
    2.5967   -7.5422    0.0000 C   0  0  0
    5.0282   -7.5422    0.0000 C   0  0  0
   -2.6911    4.5914    0.0000 C   0  0  0
    3.0452   -8.9586    0.0000 C   0  0  2
    4.5560   -8.9586    0.0000 C   0  0  0
   -4.0721    3.9895    0.0000 N   0  0  0
   -2.8564    6.0904    0.0000 N   0  0  0
    2.1482  -10.1625    0.0000 O   0  0  0
   -5.0872    5.1108    0.0000 N   0  0  0
   -4.3318    6.4091    0.0000 C   0  0  0
   -1.7587    7.1055    0.0000 C   0  0  0
  1  2  2
  2  3  1
  2  4  1
  3  5  1
  4  6  2
  4  7  1
  5  8  2
  5  9  1
  6 10  1
  7 11  2
  8 12  1
  9 13  2
 10 14  2
 11 15  1
 12 16  2
 17 12  1
 18 15  1  1  0
 17 19  1
 17 20  1  6  0
 18 21  1
 18 22  1
 19 23  1
 24 21  1
 22 25  1
 23 26  2
 23 27  1
 24 28  1  6  0
 26 29  1
 27 30  1
 27 31  1
 11 14  1
 13 16  1
 24 25  1
 29 30  2
M  END
> <COMPOUND_NAMES>
Example 205 (trans) (Page No: 444)

> <Reference>
WO2019148005

> <IC50_range_nM>
<100

> <smiles>
C[C@@H](Cc1nncn1C)c1cccc(c1)NC(c1cc(ccn1)O[C@H]1CC[C@@H](C1)O)=O

$$$$
C23H27N5O3
  MOLSOFT 03092310482D

 31 34  0  0  1  0  0  0  0  0999 V2000
    0.0000   -0.0000    0.0000 O   0  0  0
    1.2865   -0.7436    0.0000 C   0  0  0
    2.5731    0.0236    0.0000 N   0  0  0
    1.2747   -2.2308    0.0000 C   0  0  0
    2.5613    1.5344    0.0000 C   0  0  0
   -0.0354   -2.9626    0.0000 N   0  0  0
    2.5613   -2.9626    0.0000 C   0  0  0
    1.2511    2.2898    0.0000 C   0  0  0
    3.8478    2.2898    0.0000 C   0  0  0
   -0.0472   -4.4498    0.0000 C   0  0  0
    2.5495   -4.4498    0.0000 C   0  0  0
    1.2393    3.8006    0.0000 C   0  0  0
    3.8360    3.8006    0.0000 C   0  0  0
    1.2393   -5.1816    0.0000 C   0  0  0
    3.8360   -5.1816    0.0000 O   0  0  0
    2.5259    4.5678    0.0000 C   0  0  0
   -0.0708    4.5678    0.0000 C   0  0  2
    3.8242   -6.6688    0.0000 C   0  0  2
   -1.3810    3.8242    0.0000 C   0  0  0
   -0.0826    6.0786    0.0000 C   0  0  0
    2.5967   -7.5422    0.0000 C   0  0  0
    5.0282   -7.5422    0.0000 C   0  0  0
   -2.6911    4.5914    0.0000 C   0  0  0
    3.0452   -8.9586    0.0000 C   0  0  1
    4.5560   -8.9586    0.0000 C   0  0  0
   -4.0721    3.9895    0.0000 N   0  0  0
   -2.8564    6.0904    0.0000 N   0  0  0
    2.1482  -10.1625    0.0000 O   0  0  0
   -5.0872    5.1108    0.0000 N   0  0  0
   -4.3318    6.4091    0.0000 C   0  0  0
   -1.7587    7.1055    0.0000 C   0  0  0
  1  2  2
  2  3  1
  2  4  1
  3  5  1
  4  6  2
  4  7  1
  5  8  2
  5  9  1
  6 10  1
  7 11  2
  8 12  1
  9 13  2
 10 14  2
 11 15  1
 12 16  2
 17 12  1
 18 15  1  1  0
 17 19  1
 17 20  1  6  0
 18 21  1
 18 22  1
 19 23  1
 24 21  1
 22 25  1
 23 26  2
 23 27  1
 24 28  1  1  0
 26 29  1
 27 30  1
 27 31  1
 11 14  1
 13 16  1
 24 25  1
 29 30  2
M  END
> <COMPOUND_NAMES>
Example 207 (Stereo) (Page No: 445)

> <Reference>
WO2019148005

> <IC50_range_nM>
301-1000

> <smiles>
C[C@@H](Cc1nncn1C)c1cccc(c1)NC(c1cc(ccn1)O[C@H]1CC[C@H](C1)O)=O

$$$$
C23H27N5O3
  MOLSOFT 03092310482D

 31 34  0  0  1  0  0  0  0  0999 V2000
    0.0000   -0.0000    0.0000 O   0  0  0
    1.2865   -0.7436    0.0000 C   0  0  0
    2.5731    0.0236    0.0000 N   0  0  0
    1.2747   -2.2308    0.0000 C   0  0  0
    2.5613    1.5344    0.0000 C   0  0  0
   -0.0354   -2.9626    0.0000 N   0  0  0
    2.5613   -2.9626    0.0000 C   0  0  0
    1.2511    2.2898    0.0000 C   0  0  0
    3.8478    2.2898    0.0000 C   0  0  0
   -0.0472   -4.4498    0.0000 C   0  0  0
    2.5495   -4.4498    0.0000 C   0  0  0
    1.2393    3.8006    0.0000 C   0  0  0
    3.8360    3.8006    0.0000 C   0  0  0
    1.2393   -5.1816    0.0000 C   0  0  0
    3.8360   -5.1816    0.0000 O   0  0  0
    2.5259    4.5678    0.0000 C   0  0  0
   -0.0708    4.5678    0.0000 C   0  0  1
    3.8242   -6.6688    0.0000 C   0  0  2
   -1.3810    3.8242    0.0000 C   0  0  0
   -0.0826    6.0786    0.0000 C   0  0  0
    2.5967   -7.5422    0.0000 C   0  0  0
    5.0282   -7.5422    0.0000 C   0  0  0
   -2.6911    4.5914    0.0000 C   0  0  0
    3.0452   -8.9586    0.0000 C   0  0  1
    4.5560   -8.9586    0.0000 C   0  0  0
   -4.0721    3.9895    0.0000 N   0  0  0
   -2.8564    6.0904    0.0000 N   0  0  0
    2.1482  -10.1625    0.0000 O   0  0  0
   -5.0872    5.1108    0.0000 N   0  0  0
   -4.3318    6.4091    0.0000 C   0  0  0
   -1.7587    7.1055    0.0000 C   0  0  0
  1  2  2
  2  3  1
  2  4  1
  3  5  1
  4  6  2
  4  7  1
  5  8  2
  5  9  1
  6 10  1
  7 11  2
  8 12  1
  9 13  2
 10 14  2
 11 15  1
 12 16  2
 17 12  1
 18 15  1  1  0
 17 19  1
 17 20  1  1  0
 18 21  1
 18 22  1
 19 23  1
 24 21  1
 22 25  1
 23 26  2
 23 27  1
 24 28  1  1  0
 26 29  1
 27 30  1
 27 31  1
 11 14  1
 13 16  1
 24 25  1
 29 30  2
M  END
> <COMPOUND_NAMES>
Example 206 (Stereo) (Page No: 445)

> <Reference>
WO2019148005

> <IC50_range_nM>
301-1000

> <smiles>
C[C@H](Cc1nncn1C)c1cccc(c1)NC(c1cc(ccn1)O[C@H]1CC[C@H](C1)O)=O

$$$$
C23H23F2N5O3
  MOLSOFT 03092310482D

 33 37  0  0  0  0  0  0  0  0999 V2000
    0.0000   -0.0000    0.0000 F   0  0  0
    1.2846    0.7543    0.0000 C   0  0  0
    1.2728    2.2628    0.0000 F   0  0  0
    2.5692    0.0236    0.0000 O   0  0  0
    3.8538    0.7778    0.0000 C   0  0  0
    3.8420    2.2863    0.0000 C   0  0  0
    5.1384    0.0471    0.0000 C   0  0  0
    5.1266    3.0406    0.0000 C   0  0  0
    6.4230    0.8014    0.0000 C   0  0  0
    6.4112    2.2981    0.0000 N   0  0  0
    5.1148    4.5491    0.0000 C   0  0  0
    7.7076    0.0707    0.0000 C   0  0  0
    3.8066    5.3034    0.0000 O   0  0  0
    6.3994    5.3034    0.0000 N   0  0  0
    9.1925    0.0825    0.0000 C   0  0  0
    8.4383   -1.2139    0.0000 C   0  0  0
    6.3876    6.8119    0.0000 C   0  0  0
    5.0795    7.5662    0.0000 C   0  0  0
    7.6722    7.5662    0.0000 C   0  0  0
    5.0677    9.0747    0.0000 C   0  0  0
    7.6604    9.0747    0.0000 C   0  0  0
    6.3523    9.8289    0.0000 C   0  0  0
    3.7595    9.8289    0.0000 C   0  0  0
    2.2981    9.4518    0.0000 C   0  0  0
    3.3588   11.2903    0.0000 C   0  0  0
    5.0441   10.5950    0.0000 C   0  0  0
    1.8974   10.9132    0.0000 O   0  0  0
    5.0323   12.1035    0.0000 C   0  0  0
    6.2344   12.9992    0.0000 N   0  0  0
    3.8066   12.9992    0.0000 N   0  0  0
    5.7630   14.4370    0.0000 N   0  0  0
    4.2545   14.4370    0.0000 C   0  0  0
    2.3688   12.5513    0.0000 C   0  0  0
  1  2  1
  2  3  1
  2  4  1
  4  5  1
  5  6  2
  5  7  1
  6  8  1
  7  9  2
  8 10  2
  8 11  1
  9 12  1
 11 13  2
 11 14  1
 12 15  1
 12 16  1
 14 17  1
 17 18  2
 17 19  1
 18 20  1
 19 21  2
 20 22  2
 20 23  1
 23 24  1
 23 25  1
 23 26  1
 24 27  1
 26 28  1
 28 29  2
 28 30  1
 29 31  1
 30 32  1
 30 33  1
  9 10  1
 15 16  1
 21 22  1
 25 27  1
 31 32  2
M  END
> <COMPOUND_NAMES>
Example 502 (Page No: 647)

> <Reference>
WO2019148005

> <IC50_range_nM>
<100

> <smiles>
Cn1cnnc1CC1(COC1)c1cccc(c1)NC(c1cc(cc(C2CC2)n1)OC(F)F)=O

$$$$
C24H28N6O3
  MOLSOFT 03092310482D

 33 36  0  0  1  0  0  0  0  0999 V2000
    0.0000   -0.0000    0.0000 O   0  0  0
   -1.3053   -0.7291    0.0000 C   0  0  0
   -1.3170   -2.2107    0.0000 N   0  0  0
   -2.6106    0.0235    0.0000 C   0  0  0
   -2.5400   -3.0809    0.0000 C   0  0  1
   -0.1176   -3.0809    0.0000 C   0  0  0
   -2.6223    1.5287    0.0000 C   0  0  0
   -3.9158   -0.7056    0.0000 C   0  0  0
   -2.0931   -4.4920    0.0000 C   0  0  0
   -3.9746   -2.6106    0.0000 C   0  0  0
   -0.5880   -4.4920    0.0000 C   0  0  2
   -3.9276    2.2813    0.0000 C   0  0  0
   -5.2211    0.0470    0.0000 C   0  0  0
    0.2822   -5.6915    0.0000 O   0  0  0
   -5.2329    1.5522    0.0000 N   0  0  0
   -3.9393    3.7865    0.0000 C   0  0  0
   -5.2446    4.5508    0.0000 O   0  0  0
   -2.6576    4.5508    0.0000 N   0  0  0
   -2.6693    6.0560    0.0000 C   0  0  0
   -3.9746    6.8086    0.0000 C   0  0  0
   -1.3876    6.8086    0.0000 C   0  0  0
   -3.9864    8.3138    0.0000 C   0  0  0
   -1.3993    8.3138    0.0000 C   0  0  0
   -2.7046    9.0781    0.0000 C   0  0  0
   -5.2917    9.0781    0.0000 C   0  0  1
   -6.5969    8.3373    0.0000 C   0  0  0
   -5.3034   10.5833    0.0000 C   0  0  0
   -7.9022    9.1016    0.0000 C   0  0  0
   -9.2780    8.5019    0.0000 N   0  0  0
   -8.0668   10.5951    0.0000 N   0  0  0
  -10.2893    9.6191    0.0000 N   0  0  0
   -9.5367   10.9126    0.0000 C   0  0  0
   -6.9732   11.6064    0.0000 C   0  0  0
  1  2  2
  2  3  1
  2  4  1
  5  3  1
  3  6  1
  4  7  2
  4  8  1
  5  9  1
  5 10  1  1  0
 11  6  1
  7 12  1
  8 13  2
 11 14  1  1  0
 12 15  2
 12 16  1
 16 17  2
 16 18  1
 18 19  1
 19 20  2
 19 21  1
 20 22  1
 21 23  2
 22 24  2
 25 22  1
 25 26  1
 25 27  1  1  0
 26 28  1
 28 29  2
 28 30  1
 29 31  1
 30 32  1
 30 33  1
 11  9  1
 13 15  1
 23 24  1
 31 32  2
M  END
> <COMPOUND_NAMES>
Example 224 (Stereo) (Page No: 458)

> <Reference>
WO2019148005

> <IC50_range_nM>
101-300

> <smiles>
C[C@H](Cc1nncn1C)c1cccc(c1)NC(c1cc(ccn1)C(N1C[C@H](C[C@H]1C)O)=O)=O

$$$$
C24H28N6O3
  MOLSOFT 03092310482D

 33 36  0  0  1  0  0  0  0  0999 V2000
    0.0000   -0.0000    0.0000 O   0  0  0
   -1.3053   -0.7291    0.0000 C   0  0  0
   -1.3170   -2.2107    0.0000 N   0  0  0
   -2.6106    0.0235    0.0000 C   0  0  0
   -2.5400   -3.0809    0.0000 C   0  0  2
   -0.1176   -3.0809    0.0000 C   0  0  0
   -2.6223    1.5287    0.0000 C   0  0  0
   -3.9158   -0.7056    0.0000 C   0  0  0
   -2.0931   -4.4920    0.0000 C   0  0  0
   -3.9746   -2.6106    0.0000 C   0  0  0
   -0.5880   -4.4920    0.0000 C   0  0  2
   -3.9276    2.2813    0.0000 C   0  0  0
   -5.2211    0.0470    0.0000 C   0  0  0
    0.2822   -5.6915    0.0000 O   0  0  0
   -5.2329    1.5522    0.0000 N   0  0  0
   -3.9393    3.7865    0.0000 C   0  0  0
   -5.2446    4.5508    0.0000 O   0  0  0
   -2.6576    4.5508    0.0000 N   0  0  0
   -2.6693    6.0560    0.0000 C   0  0  0
   -3.9746    6.8086    0.0000 C   0  0  0
   -1.3876    6.8086    0.0000 C   0  0  0
   -3.9864    8.3138    0.0000 C   0  0  0
   -1.3993    8.3138    0.0000 C   0  0  0
   -2.7046    9.0781    0.0000 C   0  0  0
   -5.2917    9.0781    0.0000 C   0  0  1
   -6.5969    8.3373    0.0000 C   0  0  0
   -5.3034   10.5833    0.0000 C   0  0  0
   -7.9022    9.1016    0.0000 C   0  0  0
   -9.2780    8.5019    0.0000 N   0  0  0
   -8.0668   10.5951    0.0000 N   0  0  0
  -10.2893    9.6191    0.0000 N   0  0  0
   -9.5367   10.9126    0.0000 C   0  0  0
   -6.9732   11.6064    0.0000 C   0  0  0
  1  2  2
  2  3  1
  2  4  1
  5  3  1
  3  6  1
  4  7  2
  4  8  1
  5  9  1
  5 10  1  6  0
 11  6  1
  7 12  1
  8 13  2
 11 14  1  1  0
 12 15  2
 12 16  1
 16 17  2
 16 18  1
 18 19  1
 19 20  2
 19 21  1
 20 22  1
 21 23  2
 22 24  2
 25 22  1
 25 26  1
 25 27  1  1  0
 26 28  1
 28 29  2
 28 30  1
 29 31  1
 30 32  1
 30 33  1
 11  9  1
 13 15  1
 23 24  1
 31 32  2
M  END
> <COMPOUND_NAMES>
Example 223 (Stereo) (Page No: 457)

> <Reference>
WO2019148005

> <IC50_range_nM>
3001-10000

> <smiles>
C[C@H]1C[C@@H](CN1C(c1ccnc(c1)C(Nc1cccc(c1)[C@H](C)Cc1nncn1C)=O)=O)O

$$$$
C25H30N6O3
  MOLSOFT 03092310482D

 34 37  0  0  1  0  0  0  0  0999 V2000
    0.0000   -0.0000    0.0000 O   0  0  0
   -1.3054   -0.7292    0.0000 C   0  0  0
   -1.3172   -2.2110    0.0000 N   0  0  0
   -2.6108    0.0235    0.0000 C   0  0  0
   -2.5403   -3.0813    0.0000 C   0  0  1
   -0.1176   -3.0813    0.0000 C   0  0  0
   -2.6226    1.5289    0.0000 C   0  0  0
   -3.9163   -0.7056    0.0000 C   0  0  0
   -2.0934   -4.4925    0.0000 C   0  0  0
   -3.9751   -2.6108    0.0000 C   0  0  0
   -0.5880   -4.4925    0.0000 C   0  0  2
   -3.9280    2.2815    0.0000 C   0  0  0
   -5.2217    0.0470    0.0000 C   0  0  0
    0.2823   -5.6921    0.0000 O   0  0  0
   -5.2334    1.5524    0.0000 N   0  0  0
   -3.9398    3.7869    0.0000 C   0  0  0
   -5.2452    4.5513    0.0000 O   0  0  0
   -2.6579    4.5513    0.0000 N   0  0  0
   -2.6696    6.0567    0.0000 C   0  0  0
   -3.9751    6.8093    0.0000 C   0  0  0
   -1.3877    6.8093    0.0000 C   0  0  0
   -3.9868    8.3147    0.0000 C   0  0  0
   -1.3995    8.3147    0.0000 C   0  0  0
   -2.7049    9.0791    0.0000 C   0  0  0
   -5.2922    9.0791    0.0000 C   0  0  1
   -6.5977    8.3382    0.0000 C   0  0  0
   -5.3040   10.5845    0.0000 C   0  0  0
   -7.9031    9.1026    0.0000 C   0  0  0
   -8.0677   10.5962    0.0000 N   0  0  0
   -9.2791    8.5029    0.0000 N   0  0  0
   -9.5378   10.9138    0.0000 N   0  0  0
  -10.2905    9.6201    0.0000 C   0  0  0
   -9.5966    7.0563    0.0000 C   0  0  0
  -11.0314    6.6094    0.0000 C   0  0  0
  1  2  2
  2  3  1
  2  4  1
  5  3  1
  3  6  1
  4  7  2
  4  8  1
  5  9  1
  5 10  1  1  0
 11  6  1
  7 12  1
  8 13  2
 11 14  1  1  0
 12 15  2
 12 16  1
 16 17  2
 16 18  1
 18 19  1
 19 20  2
 19 21  1
 20 22  1
 21 23  2
 22 24  2
 25 22  1
 25 26  1
 25 27  1  1  0
 26 28  1
 28 29  2
 28 30  1
 29 31  1
 30 32  1
 30 33  1
 33 34  1
 11  9  1
 13 15  1
 23 24  1
 31 32  2
M  END
> <COMPOUND_NAMES>
Example 251 (Stereo) (Page No: 467)

> <Reference>
WO2019148005

> <IC50_range_nM>
301-1000

> <smiles>
CCn1cnnc1C[C@@H](C)c1cccc(c1)NC(c1cc(ccn1)C(N1C[C@H](C[C@H]1C)O)=O)=O

$$$$
C24H28N6O3
  MOLSOFT 03092310482D

 33 36  0  0  1  0  0  0  0  0999 V2000
    0.0000   -0.0000    0.0000 O   0  0  0
   -1.3067   -0.7299    0.0000 C   0  0  0
   -1.3185   -2.2132    0.0000 N   0  0  0
   -2.6134    0.0235    0.0000 C   0  0  0
   -2.5428   -3.0843    0.0000 C   0  0  0
   -0.1177   -3.0843    0.0000 C   0  0  0
   -2.6252    1.5304    0.0000 C   0  0  0
   -3.9201   -0.7063    0.0000 C   0  0  0
   -2.0954   -4.4969    0.0000 C   0  0  2
   -0.5886   -4.4969    0.0000 C   0  0  0
   -3.9319    2.2838    0.0000 C   0  0  0
   -5.2268    0.0471    0.0000 C   0  0  0
   -2.2602   -5.9685    0.0000 O   0  0  0
   -3.4728   -5.0973    0.0000 C   0  0  0
   -5.2386    1.5421    0.0000 N   0  0  0
   -3.9437    3.7906    0.0000 C   0  0  0
   -5.2504    4.5440    0.0000 O   0  0  0
   -2.6605    4.5440    0.0000 N   0  0  0
   -2.6723    6.0509    0.0000 C   0  0  0
   -3.9790    6.8043    0.0000 C   0  0  0
   -1.3891    6.8043    0.0000 C   0  0  0
   -3.9907    8.3111    0.0000 C   0  0  0
   -1.4009    8.3111    0.0000 C   0  0  0
   -2.7076    9.0645    0.0000 C   0  0  0
   -5.2974    9.0645    0.0000 C   0  0  1
   -6.6042    8.3347    0.0000 C   0  0  0
   -5.3092   10.5714    0.0000 C   0  0  0
   -7.9109    9.0881    0.0000 C   0  0  0
   -9.2882    8.4877    0.0000 N   0  0  0
   -8.0757   10.5831    0.0000 N   0  0  0
  -10.3006    9.6060    0.0000 N   0  0  0
   -9.5472   10.9010    0.0000 C   0  0  0
   -6.9809   11.5955    0.0000 C   0  0  0
  1  2  2
  2  3  1
  2  4  1
  3  5  1
  3  6  1
  4  7  2
  4  8  1
  9  5  1
  6 10  1
  7 11  1
  8 12  2
  9 13  1  6  0
  9 14  1
 11 15  2
 11 16  1
 16 17  2
 16 18  1
 18 19  1
 19 20  2
 19 21  1
 20 22  1
 21 23  2
 22 24  2
 25 22  1
 25 26  1
 25 27  1  1  0
 26 28  1
 28 29  2
 28 30  1
 29 31  1
 30 32  1
 30 33  1
  9 10  1
 12 15  1
 23 24  1
 31 32  2
M  END
> <COMPOUND_NAMES>
Example 222 (Stereo) (Page No: 457)

> <Reference>
WO2019148005

> <IC50_range_nM>
301-1000

> <smiles>
C[C@H](Cc1nncn1C)c1cccc(c1)NC(c1cc(ccn1)C(N1CC[C@@](C)(C1)O)=O)=O

$$$$
C26H30N6O3
  MOLSOFT 03092310482D

 35 39  0  0  1  0  0  0  0  0999 V2000
    0.0000   -0.0000    0.0000 O   0  0  0
   -1.3056   -0.7292    0.0000 C   0  0  0
   -1.3173   -2.2112    0.0000 N   0  0  0
   -2.6111    0.0235    0.0000 C   0  0  0
   -2.5405   -3.0816    0.0000 C   0  0  0
   -0.1176   -3.0816    0.0000 C   0  0  0
   -2.6229    1.5290    0.0000 C   0  0  0
   -3.9167   -0.7057    0.0000 C   0  0  0
   -2.0936   -4.4930    0.0000 C   0  0  2
   -0.5881   -4.4930    0.0000 C   0  0  0
   -3.9284    2.2818    0.0000 C   0  0  0
   -5.2222    0.0470    0.0000 C   0  0  0
   -2.9875   -5.6927    0.0000 O   0  0  0
   -5.2340    1.5526    0.0000 N   0  0  0
   -3.9402    3.7873    0.0000 C   0  0  0
   -6.5278   -0.6822    0.0000 C   0  0  0
   -5.2458    4.5518    0.0000 O   0  0  0
   -2.6582    4.5518    0.0000 N   0  0  0
   -7.2805   -1.9642    0.0000 C   0  0  0
   -8.0333   -0.6704    0.0000 C   0  0  0
   -2.6699    6.0573    0.0000 C   0  0  0
   -3.9755    6.8101    0.0000 C   0  0  0
   -1.3879    6.8101    0.0000 C   0  0  0
   -3.9872    8.3156    0.0000 C   0  0  0
   -1.3997    8.3156    0.0000 C   0  0  0
   -2.7052    9.0801    0.0000 C   0  0  0
   -5.2928    9.0801    0.0000 C   0  0  2
   -6.5984    8.3391    0.0000 C   0  0  0
   -5.3046   10.5856    0.0000 C   0  0  0
   -7.9039    9.1036    0.0000 C   0  0  0
   -9.2800    8.5038    0.0000 N   0  0  0
   -8.0686   10.5974    0.0000 N   0  0  0
  -10.2916    9.6211    0.0000 N   0  0  0
   -9.5388   10.9149    0.0000 C   0  0  0
   -6.9747   11.6089    0.0000 C   0  0  0
  1  2  2
  2  3  1
  2  4  1
  3  5  1
  3  6  1
  4  7  2
  4  8  1
  9  5  1
  6 10  1
  7 11  1
  8 12  2
  9 13  1  6  0
 11 14  2
 11 15  1
 12 16  1
 15 17  2
 15 18  1
 16 19  1
 16 20  1
 18 21  1
 21 22  2
 21 23  1
 22 24  1
 23 25  2
 24 26  2
 27 24  1
 27 28  1
 27 29  1  6  0
 28 30  1
 30 31  2
 30 32  1
 31 33  1
 32 34  1
 32 35  1
  9 10  1
 12 14  1
 19 20  1
 25 26  1
 33 34  2
M  END
> <COMPOUND_NAMES>
Example 221 (Stereo) (Page No: 455)

> <Reference>
WO2019148005

> <IC50_range_nM>
301-1000

> <smiles>
C[C@@H](Cc1nncn1C)c1cccc(c1)NC(c1cc(cc(C2CC2)n1)C(N1CC[C@@H](C1)O)=O)=O

$$$$
C25H30N6O3
  MOLSOFT 03092310482D

 34 37  0  0  1  0  0  0  0  0999 V2000
    0.0000   -0.0000    0.0000 O   0  0  0
   -1.3071   -0.7301    0.0000 C   0  0  0
   -1.3189   -2.2138    0.0000 N   0  0  0
   -2.6142    0.0236    0.0000 C   0  0  0
   -2.5435   -3.0852    0.0000 C   0  0  0
   -0.1178   -3.0852    0.0000 C   0  0  0
   -2.6260    1.5308    0.0000 C   0  0  0
   -3.9213   -0.7065    0.0000 C   0  0  0
   -2.0961   -4.4983    0.0000 C   0  0  0
   -0.5888   -4.4983    0.0000 C   0  0  3
   -3.9331    2.2845    0.0000 C   0  0  0
   -5.2284    0.0471    0.0000 C   0  0  0
   -3.4738   -5.0988    0.0000 C   0  0  0
   -2.2609   -5.9702    0.0000 C   0  0  0
    0.2826   -5.6994    0.0000 O   0  0  0
   -5.2401    1.5426    0.0000 N   0  0  0
   -3.9448    3.7917    0.0000 C   0  0  0
   -5.2519    4.5454    0.0000 O   0  0  0
   -2.6613    4.5454    0.0000 N   0  0  0
   -2.6731    6.0527    0.0000 C   0  0  0
   -3.9802    6.8063    0.0000 C   0  0  0
   -1.3895    6.8063    0.0000 C   0  0  0
   -3.9919    8.3136    0.0000 C   0  0  0
   -1.4013    8.3136    0.0000 C   0  0  0
   -2.7084    9.0672    0.0000 C   0  0  0
   -5.2990    9.0672    0.0000 C   0  0  1
   -6.6061    8.3371    0.0000 C   0  0  0
   -5.3108   10.5745    0.0000 C   0  0  0
   -7.9132    9.0908    0.0000 C   0  0  0
   -9.2910    8.4902    0.0000 N   0  0  0
   -8.0781   10.5863    0.0000 N   0  0  0
  -10.3037    9.6089    0.0000 N   0  0  0
   -9.5500   10.9042    0.0000 C   0  0  0
   -6.9829   11.5990    0.0000 C   0  0  0
  1  2  2
  2  3  1
  2  4  1
  3  5  1
  3  6  1
  4  7  2
  4  8  1
  5  9  1
 10  6  1
  7 11  1
  8 12  2
  9 13  1
  9 14  1
 10 15  1
 11 16  2
 11 17  1
 17 18  2
 17 19  1
 19 20  1
 20 21  2
 20 22  1
 21 23  1
 22 24  2
 23 25  2
 26 23  1
 26 27  1
 26 28  1  1  0
 27 29  1
 29 30  2
 29 31  1
 30 32  1
 31 33  1
 31 34  1
 10  9  1
 12 16  1
 24 25  1
 32 33  2
M  END
> <COMPOUND_NAMES>
Example 239 (R) (Page No: 463)

> <Reference>
WO2019148005

> <IC50_range_nM>
1001-3000

> <smiles>
C[C@H](Cc1nncn1C)c1cccc(c1)NC(c1cc(ccn1)C(N1CC(C(C)(C)C1)O)=O)=O

$$$$
C25H30N6O3
  MOLSOFT 03092310482D

 34 37  0  0  1  0  0  0  0  0999 V2000
    0.0000   -0.0000    0.0000 O   0  0  0
   -1.3050   -0.7289    0.0000 C   0  0  0
   -1.3168   -2.2103    0.0000 N   0  0  0
   -2.6101    0.0235    0.0000 C   0  0  0
   -2.5395   -3.0804    0.0000 C   0  0  0
   -0.1176   -3.0804    0.0000 C   0  0  0
   -2.6218    1.5284    0.0000 C   0  0  0
   -3.9151   -0.7054    0.0000 C   0  0  0
   -2.0928   -4.4912    0.0000 C   0  0  3
   -3.5506   -1.9634    0.0000 C   0  0  0
   -4.0092   -3.3743    0.0000 C   0  0  0
   -0.5879   -4.4912    0.0000 C   0  0  0
   -3.9269    2.2809    0.0000 C   0  0  0
   -5.2202    0.0470    0.0000 C   0  0  0
   -2.9863   -5.6904    0.0000 O   0  0  0
   -5.2319    1.5519    0.0000 N   0  0  0
   -3.9386    3.7858    0.0000 C   0  0  0
   -5.2437    4.5500    0.0000 O   0  0  0
   -2.6571    4.5500    0.0000 N   0  0  0
   -2.6689    6.0549    0.0000 C   0  0  0
   -3.9739    6.8074    0.0000 C   0  0  0
   -1.3873    6.8074    0.0000 C   0  0  0
   -3.9857    8.3123    0.0000 C   0  0  0
   -1.3991    8.3123    0.0000 C   0  0  0
   -2.7041    9.0765    0.0000 C   0  0  0
   -5.2907    9.0765    0.0000 C   0  0  1
   -6.5957    8.3358    0.0000 C   0  0  0
   -5.3025   10.5814    0.0000 C   0  0  0
   -7.9008    9.1000    0.0000 C   0  0  0
   -9.2764    8.5004    0.0000 N   0  0  0
   -8.0654   10.5932    0.0000 N   0  0  0
  -10.2875    9.6173    0.0000 N   0  0  0
   -9.5350   10.9106    0.0000 C   0  0  0
   -6.9720   11.6043    0.0000 C   0  0  0
  1  2  2
  2  3  1
  2  4  1
  3  5  1
  3  6  1
  4  7  2
  4  8  1
  9  5  1
  5 10  1
  5 11  1
  6 12  1
  7 13  1
  8 14  2
  9 15  1
 13 16  2
 13 17  1
 17 18  2
 17 19  1
 19 20  1
 20 21  2
 20 22  1
 21 23  1
 22 24  2
 23 25  2
 26 23  1
 26 27  1
 26 28  1  1  0
 27 29  1
 29 30  2
 29 31  1
 30 32  1
 31 33  1
 31 34  1
  9 12  1
 14 16  1
 24 25  1
 32 33  2
M  END
> <COMPOUND_NAMES>
Example 231 (R) (Page No: 460)

> <Reference>
WO2019148005

> <IC50_range_nM>
1001-3000

> <smiles>
C[C@H](Cc1nncn1C)c1cccc(c1)NC(c1cc(ccn1)C(N1CCC(C1(C)C)O)=O)=O

$$$$
C23H26N6O3
  MOLSOFT 03092310482D

 32 35  0  0  1  0  0  0  0  0999 V2000
    0.0000   -0.0000    0.0000 O   0  0  0
   -1.3057   -0.7293    0.0000 C   0  0  0
   -1.3175   -2.2114    0.0000 N   0  0  0
   -2.6114    0.0235    0.0000 C   0  0  0
   -0.2705   -3.2583    0.0000 C   0  0  0
   -2.3879   -3.2583    0.0000 C   0  0  0
   -2.6231    1.5292    0.0000 C   0  0  0
   -3.9171   -0.7058    0.0000 C   0  0  0
   -1.3410   -4.3052    0.0000 C   0  0  0
   -3.9288    2.2820    0.0000 C   0  0  0
   -5.2228    0.0471    0.0000 C   0  0  0
   -1.3527   -5.7874    0.0000 C   0  0  0
   -5.2345    1.5527    0.0000 N   0  0  0
   -3.9406    3.7877    0.0000 C   0  0  0
   -2.6584   -6.5167    0.0000 O   0  0  0
   -5.2463    4.5523    0.0000 O   0  0  0
   -2.6584    4.5523    0.0000 N   0  0  0
   -2.6702    6.0579    0.0000 C   0  0  0
   -3.9759    6.8108    0.0000 C   0  0  0
   -1.3880    6.8108    0.0000 C   0  0  0
   -3.9876    8.3164    0.0000 C   0  0  0
   -1.3998    8.3164    0.0000 C   0  0  0
   -2.7055    9.0810    0.0000 C   0  0  0
   -5.2933    9.0810    0.0000 C   0  0  1
   -6.5990    8.3399    0.0000 C   0  0  0
   -5.3051   10.5867    0.0000 C   0  0  0
   -7.9047    9.1045    0.0000 C   0  0  0
   -9.2810    8.5046    0.0000 N   0  0  0
   -8.0694   10.5984    0.0000 N   0  0  0
  -10.2926    9.6221    0.0000 N   0  0  0
   -9.5398   10.9160    0.0000 C   0  0  0
   -6.9754   11.6101    0.0000 C   0  0  0
  1  2  2
  2  3  1
  2  4  1
  3  5  1
  3  6  1
  4  7  2
  4  8  1
  5  9  1
  7 10  1
  8 11  2
  9 12  1
 10 13  2
 10 14  1
 12 15  1
 14 16  2
 14 17  1
 17 18  1
 18 19  2
 18 20  1
 19 21  1
 20 22  2
 21 23  2
 24 21  1
 24 25  1
 24 26  1  1  0
 25 27  1
 27 28  2
 27 29  1
 28 30  1
 29 31  1
 29 32  1
  6  9  1
 11 13  1
 22 23  1
 30 31  2
M  END
> <COMPOUND_NAMES>
Example 232 (R) (Page No: 461)

> <Reference>
WO2019148005

> <IC50_range_nM>
1001-3000

> <smiles>
C[C@H](Cc1nncn1C)c1cccc(c1)NC(c1cc(ccn1)C(N1CC(C1)CO)=O)=O

$$$$
C24H28N6O3
  MOLSOFT 03092310482D

 33 36  0  0  1  0  0  0  0  0999 V2000
    0.0000   -0.0000    0.0000 O   0  0  0
   -1.4385   -0.4481    0.0000 C   0  0  0
   -2.5586    0.5660    0.0000 N   0  0  0
   -1.7568   -1.8983    0.0000 C   0  0  0
   -2.6529    2.0752    0.0000 C   0  0  0
   -4.0678    0.4952    0.0000 C   0  0  0
   -3.1953   -2.3464    0.0000 C   0  0  0
   -0.6485   -2.8888    0.0000 C   0  0  0
   -4.1622    2.0044    0.0000 C   0  0  0
   -3.5137   -3.7966    0.0000 C   0  0  0
   -0.9668   -4.3390    0.0000 C   0  0  0
   -5.2823    3.0185    0.0000 C   0  0  3
   -2.4053   -4.7871    0.0000 N   0  0  0
   -4.9522   -4.2447    0.0000 C   0  0  0
   -4.9875    4.4923    0.0000 O   0  0  0
   -6.7208    2.5704    0.0000 C   0  0  0
   -6.0841   -3.2307    0.0000 O   0  0  0
   -5.2705   -5.6950    0.0000 N   0  0  0
   -6.7090   -6.1430    0.0000 C   0  0  0
   -7.0273   -7.5933    0.0000 C   0  0  0
   -7.8409   -5.1290    0.0000 C   0  0  0
   -8.4658   -8.0413    0.0000 C   0  0  0
   -9.2794   -5.5771    0.0000 C   0  0  0
   -9.5977   -7.0273    0.0000 C   0  0  0
   -8.7842   -9.4916    0.0000 C   0  0  1
  -10.2227   -9.9397    0.0000 C   0  0  0
   -7.6876  -10.4821    0.0000 C   0  0  0
  -10.5410  -11.3899    0.0000 C   0  0  0
   -9.5506  -12.4983    0.0000 N   0  0  0
  -11.9205  -11.9913    0.0000 N   0  0  0
  -10.3170  -13.7835    0.0000 N   0  0  0
  -11.7790  -13.4651    0.0000 C   0  0  0
  -13.2293  -11.2249    0.0000 C   0  0  0
  1  2  2
  2  3  1
  2  4  1
  3  5  1
  3  6  1
  4  7  2
  4  8  1
  5  9  1
  7 10  1
  8 11  2
 12  9  1
 10 13  2
 10 14  1
 12 15  1
 12 16  1
 14 17  2
 14 18  1
 18 19  1
 19 20  2
 19 21  1
 20 22  1
 21 23  2
 22 24  2
 25 22  1
 25 26  1
 25 27  1  6  0
 26 28  1
 28 29  2
 28 30  1
 29 31  1
 30 32  1
 30 33  1
  6  9  1
 11 13  1
 23 24  1
 31 32  2
M  END
> <COMPOUND_NAMES>
Example 241 (R) (Page No: 464)

> <Reference>
WO2019148005

> <IC50_range_nM>
3001-10000

> <smiles>
CC(C1CN(C1)C(c1ccnc(c1)C(Nc1cccc(c1)[C@H](C)Cc1nncn1C)=O)=O)O

$$$$
C24H28N6O3
  MOLSOFT 03092310482D

 33 36  0  0  1  0  0  0  0  0999 V2000
    0.0000   -0.0000    0.0000 O   0  0  0
   -1.3051   -0.7290    0.0000 C   0  0  0
   -1.3169   -2.2105    0.0000 N   0  0  0
   -2.6102    0.0235    0.0000 C   0  0  0
   -2.5397   -3.0805    0.0000 C   0  0  0
   -0.1176   -3.0805    0.0000 C   0  0  0
   -2.6220    1.5285    0.0000 C   0  0  0
   -3.9153   -0.7055    0.0000 C   0  0  0
   -2.0929   -4.4915    0.0000 C   0  0  3
   -0.5879   -4.4915    0.0000 C   0  0  0
   -3.9271    2.2810    0.0000 C   0  0  0
   -5.2205    0.0470    0.0000 C   0  0  0
   -2.9865   -5.6908    0.0000 C   0  0  0
   -5.2322    1.5520    0.0000 N   0  0  0
   -3.9389    3.7860    0.0000 C   0  0  0
   -4.4797   -5.5262    0.0000 O   0  0  0
   -5.2440    4.5503    0.0000 O   0  0  0
   -2.6573    4.5503    0.0000 N   0  0  0
   -2.6690    6.0553    0.0000 C   0  0  0
   -3.9741    6.8078    0.0000 C   0  0  0
   -1.3874    6.8078    0.0000 C   0  0  0
   -3.9859    8.3128    0.0000 C   0  0  0
   -1.3992    8.3128    0.0000 C   0  0  0
   -2.7043    9.0770    0.0000 C   0  0  0
   -5.2910    9.0770    0.0000 C   0  0  1
   -6.5961    8.3363    0.0000 C   0  0  0
   -5.3028   10.5820    0.0000 C   0  0  0
   -7.9012    9.1005    0.0000 C   0  0  0
   -9.2769    8.5009    0.0000 N   0  0  0
   -8.0658   10.5938    0.0000 N   0  0  0
  -10.2881    9.6179    0.0000 N   0  0  0
   -9.5356   10.9112    0.0000 C   0  0  0
   -6.9724   11.6049    0.0000 C   0  0  0
  1  2  2
  2  3  1
  2  4  1
  3  5  1
  3  6  1
  4  7  2
  4  8  1
  9  5  1
  6 10  1
  7 11  1
  8 12  2
  9 13  1
 11 14  2
 11 15  1
 13 16  1
 15 17  2
 15 18  1
 18 19  1
 19 20  2
 19 21  1
 20 22  1
 21 23  2
 22 24  2
 25 22  1
 25 26  1
 25 27  1  1  0
 26 28  1
 28 29  2
 28 30  1
 29 31  1
 30 32  1
 30 33  1
  9 10  1
 12 14  1
 23 24  1
 31 32  2
M  END
> <COMPOUND_NAMES>
Example 245 (R) (Page No: 465)

> <Reference>
WO2019148005

> <IC50_range_nM>
1001-3000

> <smiles>
C[C@H](Cc1nncn1C)c1cccc(c1)NC(c1cc(ccn1)C(N1CCC(C1)CO)=O)=O

$$$$
C25H30N6O3
  MOLSOFT 03092310482D

 34 37  0  0  1  0  0  0  0  0999 V2000
    0.0000   -0.0000    0.0000 O   0  0  0
   -1.3082   -0.7307    0.0000 C   0  0  0
   -1.3200   -2.2157    0.0000 N   0  0  0
   -2.6164    0.0236    0.0000 C   0  0  0
   -0.0354   -2.9464    0.0000 C   0  0  0
   -2.6282   -2.9464    0.0000 C   0  0  0
   -2.6282    1.5321    0.0000 C   0  0  0
   -3.9247   -0.7071    0.0000 C   0  0  0
   -0.0471   -4.4314    0.0000 C   0  0  0
   -2.6400   -4.4314    0.0000 C   0  0  0
   -3.9364    2.2864    0.0000 C   0  0  0
   -5.2329    0.0471    0.0000 C   0  0  0
   -1.3554   -5.1622    0.0000 C   0  0  0
   -5.2447    1.5557    0.0000 N   0  0  0
   -3.9482    3.7950    0.0000 C   0  0  0
   -0.6246   -6.4468    0.0000 O   0  0  0
   -2.1096   -6.4468    0.0000 C   0  0  0
   -5.2564    4.5493    0.0000 O   0  0  0
   -2.6636    4.5493    0.0000 N   0  0  0
   -2.6754    6.0579    0.0000 C   0  0  0
   -3.9836    6.8122    0.0000 C   0  0  0
   -1.3907    6.8122    0.0000 C   0  0  0
   -3.9954    8.3207    0.0000 C   0  0  0
   -1.4025    8.3207    0.0000 C   0  0  0
   -2.7107    9.0750    0.0000 C   0  0  0
   -5.3036    9.0750    0.0000 C   0  0  1
   -6.6118    8.3443    0.0000 C   0  0  0
   -5.3154   10.5836    0.0000 C   0  0  0
   -7.9200    9.0986    0.0000 C   0  0  0
   -9.2990    8.4975    0.0000 N   0  0  0
   -8.0850   10.5954    0.0000 N   0  0  0
  -10.3125    9.6172    0.0000 N   0  0  0
   -9.5582   10.9136    0.0000 C   0  0  0
   -6.9889   11.6090    0.0000 C   0  0  0
  1  2  2
  2  3  1
  2  4  1
  3  5  1
  3  6  1
  4  7  2
  4  8  1
  5  9  1
  6 10  1
  7 11  1
  8 12  2
  9 13  1
 11 14  2
 11 15  1
 13 16  1
 13 17  1
 15 18  2
 15 19  1
 19 20  1
 20 21  2
 20 22  1
 21 23  1
 22 24  2
 23 25  2
 26 23  1
 26 27  1
 26 28  1  1  0
 27 29  1
 29 30  2
 29 31  1
 30 32  1
 31 33  1
 31 34  1
 10 13  1
 12 14  1
 24 25  1
 32 33  2
M  END
> <COMPOUND_NAMES>
Example 227 (R) (Page No: 459)

> <Reference>
WO2019148005

> <IC50_range_nM>
1001-3000

> <smiles>
C[C@H](Cc1nncn1C)c1cccc(c1)NC(c1cc(ccn1)C(N1CCC(C)(CC1)O)=O)=O

$$$$
C23H25FN6O3
  MOLSOFT 03092310482D

 33 36  0  0  1  0  0  0  0  0999 V2000
    0.0000   -0.0000    0.0000 F   0  0  0
    0.8697    1.2223    0.0000 C   0  0  2
    2.3506    1.2341    0.0000 C   0  0  1
    0.3996    2.6562    0.0000 C   0  0  0
    3.2203    0.0353    0.0000 O   0  0  0
    2.7972    2.6679    0.0000 C   0  0  0
    1.5984    3.5494    0.0000 N   0  0  0
    1.5866    5.0538    0.0000 C   0  0  0
    2.8677    5.8059    0.0000 O   0  0  0
    0.2821    5.8059    0.0000 C   0  0  0
    0.2703    7.3103    0.0000 C   0  0  0
   -1.0225    5.0773    0.0000 C   0  0  0
   -1.0343    8.0625    0.0000 C   0  0  0
   -2.3271    5.8294    0.0000 C   0  0  0
   -2.3388    7.3338    0.0000 N   0  0  0
   -1.0460    9.5669    0.0000 C   0  0  0
   -2.3506   10.3308    0.0000 O   0  0  0
    0.2351   10.3308    0.0000 N   0  0  0
    0.2233   11.8352    0.0000 C   0  0  0
   -1.0813   12.5874    0.0000 C   0  0  0
    1.5044   12.5874    0.0000 C   0  0  0
   -1.0930   14.0917    0.0000 C   0  0  0
    1.4926   14.0917    0.0000 C   0  0  0
    0.1880   14.8557    0.0000 C   0  0  0
   -2.3976   14.8557    0.0000 C   0  0  1
   -3.7022   14.1153    0.0000 C   0  0  0
   -2.4093   16.3601    0.0000 C   0  0  0
   -5.0067   14.8792    0.0000 C   0  0  0
   -6.3818   14.2798    0.0000 N   0  0  0
   -5.1713   16.3718    0.0000 N   0  0  0
   -7.3926   15.3963    0.0000 N   0  0  0
   -6.6404   16.6891    0.0000 C   0  0  0
   -4.0783   17.3826    0.0000 C   0  0  0
  2  1  1  1  0
  2  3  1
  2  4  1
  3  5  1  6  0
  3  6  1
  4  7  1
  7  8  1
  8  9  2
  8 10  1
 10 11  2
 10 12  1
 11 13  1
 12 14  2
 13 15  2
 13 16  1
 16 17  2
 16 18  1
 18 19  1
 19 20  2
 19 21  1
 20 22  1
 21 23  2
 22 24  2
 25 22  1
 25 26  1
 25 27  1  1  0
 26 28  1
 28 29  2
 28 30  1
 29 31  1
 30 32  1
 30 33  1
  6  7  1
 14 15  1
 23 24  1
 31 32  2
M  END
> <COMPOUND_NAMES>
Example 240 (Stereo) (Page No: 463)

> <Reference>
WO2019148005

> <IC50_range_nM>
101-300

> <smiles>
C[C@H](Cc1nncn1C)c1cccc(c1)NC(c1cc(ccn1)C(N1C[C@@H]([C@H](C1)F)O)=O)=O

$$$$
C23H25FN6O3
  MOLSOFT 03092310482D

 33 36  0  0  1  0  0  0  0  0999 V2000
    0.0000   -0.0000    0.0000 F   0  0  0
    0.8697    1.2223    0.0000 C   0  0  2
    2.3506    1.2341    0.0000 C   0  0  1
    0.3996    2.6562    0.0000 C   0  0  0
    3.2203    0.0353    0.0000 O   0  0  0
    2.7972    2.6679    0.0000 C   0  0  0
    1.5984    3.5494    0.0000 N   0  0  0
    1.5866    5.0538    0.0000 C   0  0  0
    2.8677    5.8059    0.0000 O   0  0  0
    0.2821    5.8059    0.0000 C   0  0  0
    0.2703    7.3103    0.0000 C   0  0  0
   -1.0225    5.0773    0.0000 C   0  0  0
   -1.0343    8.0625    0.0000 C   0  0  0
   -2.3271    5.8294    0.0000 C   0  0  0
   -2.3388    7.3338    0.0000 N   0  0  0
   -1.0460    9.5669    0.0000 C   0  0  0
   -2.3506   10.3308    0.0000 O   0  0  0
    0.2351   10.3308    0.0000 N   0  0  0
    0.2233   11.8352    0.0000 C   0  0  0
   -1.0813   12.5874    0.0000 C   0  0  0
    1.5044   12.5874    0.0000 C   0  0  0
   -1.0930   14.0917    0.0000 C   0  0  0
    1.4926   14.0917    0.0000 C   0  0  0
    0.1880   14.8557    0.0000 C   0  0  0
   -2.3976   14.8557    0.0000 C   0  0  1
   -3.7022   14.1153    0.0000 C   0  0  0
   -2.4093   16.3601    0.0000 C   0  0  0
   -5.0067   14.8792    0.0000 C   0  0  0
   -6.3818   14.2798    0.0000 N   0  0  0
   -5.1713   16.3718    0.0000 N   0  0  0
   -7.3926   15.3963    0.0000 N   0  0  0
   -6.6404   16.6891    0.0000 C   0  0  0
   -4.0783   17.3826    0.0000 C   0  0  0
  2  1  1  1  0
  2  3  1
  2  4  1
  3  5  1  6  0
  3  6  1
  4  7  1
  7  8  1
  8  9  2
  8 10  1
 10 11  2
 10 12  1
 11 13  1
 12 14  2
 13 15  2
 13 16  1
 16 17  2
 16 18  1
 18 19  1
 19 20  2
 19 21  1
 20 22  1
 21 23  2
 22 24  2
 25 22  1
 25 26  1
 25 27  1  1  0
 26 28  1
 28 29  2
 28 30  1
 29 31  1
 30 32  1
 30 33  1
  6  7  1
 14 15  1
 23 24  1
 31 32  2
M  END
> <COMPOUND_NAMES>
Example 235 (Stereo) (Page No: 462)

> <Reference>
WO2019148005

> <IC50_range_nM>
1001-3000

> <smiles>
C[C@H](Cc1nncn1C)c1cccc(c1)NC(c1cc(ccn1)C(N1C[C@@H]([C@H](C1)F)O)=O)=O

$$$$
C23H25FN6O3
  MOLSOFT 03092310482D

 33 36  0  0  1  0  0  0  0  0999 V2000
    0.0000   -0.0000    0.0000 F   0  0  0
    0.8697    1.2223    0.0000 C   0  0  2
    2.3506    1.2341    0.0000 C   0  0  2
    0.3996    2.6562    0.0000 C   0  0  0
    3.2203    0.0353    0.0000 O   0  0  0
    2.7972    2.6679    0.0000 C   0  0  0
    1.5984    3.5494    0.0000 N   0  0  0
    1.5866    5.0538    0.0000 C   0  0  0
    2.8677    5.8059    0.0000 O   0  0  0
    0.2821    5.8059    0.0000 C   0  0  0
    0.2703    7.3103    0.0000 C   0  0  0
   -1.0225    5.0773    0.0000 C   0  0  0
   -1.0343    8.0625    0.0000 C   0  0  0
   -2.3271    5.8294    0.0000 C   0  0  0
   -2.3388    7.3338    0.0000 N   0  0  0
   -1.0460    9.5669    0.0000 C   0  0  0
   -2.3506   10.3308    0.0000 O   0  0  0
    0.2351   10.3308    0.0000 N   0  0  0
    0.2233   11.8352    0.0000 C   0  0  0
   -1.0813   12.5874    0.0000 C   0  0  0
    1.5044   12.5874    0.0000 C   0  0  0
   -1.0930   14.0917    0.0000 C   0  0  0
    1.4926   14.0917    0.0000 C   0  0  0
    0.1880   14.8557    0.0000 C   0  0  0
   -2.3976   14.8557    0.0000 C   0  0  2
   -3.7022   14.1153    0.0000 C   0  0  0
   -2.4093   16.3601    0.0000 C   0  0  0
   -5.0067   14.8792    0.0000 C   0  0  0
   -6.3818   14.2798    0.0000 N   0  0  0
   -5.1713   16.3718    0.0000 N   0  0  0
   -7.3926   15.3963    0.0000 N   0  0  0
   -6.6404   16.6891    0.0000 C   0  0  0
   -4.0783   17.3826    0.0000 C   0  0  0
  2  1  1  1  0
  2  3  1
  2  4  1
  3  5  1  1  0
  3  6  1
  4  7  1
  7  8  1
  8  9  2
  8 10  1
 10 11  2
 10 12  1
 11 13  1
 12 14  2
 13 15  2
 13 16  1
 16 17  2
 16 18  1
 18 19  1
 19 20  2
 19 21  1
 20 22  1
 21 23  2
 22 24  2
 25 22  1
 25 26  1
 25 27  1  6  0
 26 28  1
 28 29  2
 28 30  1
 29 31  1
 30 32  1
 30 33  1
  6  7  1
 14 15  1
 23 24  1
 31 32  2
M  END
> <COMPOUND_NAMES>
Example 246 (Stereo) (Page No: 466)

> <Reference>
WO2019148005

> <IC50_range_nM>
1001-3000

> <smiles>
C[C@@H](Cc1nncn1C)c1cccc(c1)NC(c1cc(ccn1)C(N1C[C@@H]([C@@H](C1)O)F)=O)=O

$$$$
C23H24F2N6O3
  MOLSOFT 03092310482D

 34 37  0  0  1  0  0  0  0  0999 V2000
    0.0000   -0.0000    0.0000 F   0  0  0
    1.3536    0.6238    0.0000 C   0  0  0
    1.1888   -0.8474    0.0000 F   0  0  0
    2.8366    0.6356    0.0000 C   0  0  3
    0.8828    2.0598    0.0000 C   0  0  0
    3.7076   -0.5650    0.0000 O   0  0  0
    3.2839    2.0715    0.0000 C   0  0  0
    2.0833    2.9543    0.0000 N   0  0  0
    2.0715    4.4609    0.0000 C   0  0  0
    3.3545    5.2141    0.0000 O   0  0  0
    0.7651    5.2141    0.0000 C   0  0  0
    0.7533    6.7207    0.0000 C   0  0  0
   -0.5414    4.4844    0.0000 C   0  0  0
   -0.5532    7.4740    0.0000 C   0  0  0
   -1.8479    5.2377    0.0000 C   0  0  0
   -1.8597    6.7325    0.0000 N   0  0  0
   -0.5650    8.9806    0.0000 C   0  0  0
   -1.8714    9.7339    0.0000 O   0  0  0
    0.7180    9.7339    0.0000 N   0  0  0
    0.7062   11.2404    0.0000 C   0  0  0
   -0.6003   11.9937    0.0000 C   0  0  0
    1.9891   11.9937    0.0000 C   0  0  0
   -0.6120   13.5003    0.0000 C   0  0  0
    1.9774   13.5003    0.0000 C   0  0  0
    0.6709   14.2536    0.0000 C   0  0  0
   -1.9185   14.2536    0.0000 C   0  0  2
   -3.2250   13.5238    0.0000 C   0  0  0
   -1.9303   15.7601    0.0000 C   0  0  0
   -4.5315   14.2771    0.0000 C   0  0  0
   -5.9086   13.6768    0.0000 N   0  0  0
   -4.6963   15.7719    0.0000 N   0  0  0
   -6.9208   14.7950    0.0000 N   0  0  0
   -6.1675   16.0897    0.0000 C   0  0  0
   -3.6016   16.7841    0.0000 C   0  0  0
  1  2  1
  2  3  1
  4  2  1
  2  5  1
  4  6  1
  4  7  1
  5  8  1
  8  9  1
  9 10  2
  9 11  1
 11 12  2
 11 13  1
 12 14  1
 13 15  2
 14 16  2
 14 17  1
 17 18  2
 17 19  1
 19 20  1
 20 21  2
 20 22  1
 21 23  1
 22 24  2
 23 25  2
 26 23  1
 26 27  1
 26 28  1  6  0
 27 29  1
 29 30  2
 29 31  1
 30 32  1
 31 33  1
 31 34  1
  7  8  1
 15 16  1
 24 25  1
 32 33  2
M  END
> <COMPOUND_NAMES>
Example 243 (R) (Page No: 465)

> <Reference>
WO2019148005

> <IC50_range_nM>
301-1000

> <smiles>
C[C@@H](Cc1nncn1C)c1cccc(c1)NC(c1cc(ccn1)C(N1CC(C(C1)(F)F)O)=O)=O

$$$$
C24H25F3N6O3
  MOLSOFT 03092310482D

 36 39  0  0  1  0  0  0  0  0999 V2000
    0.0000   -0.0000    0.0000 F   0  0  0
    0.7431   -1.2856    0.0000 C   0  0  0
   -0.5661   -2.0169    0.0000 F   0  0  0
    1.4861   -2.5712    0.0000 F   0  0  0
    2.0287   -0.5308    0.0000 C   0  0  0
    2.0169    0.9790    0.0000 N   0  0  0
    3.3143   -1.2620    0.0000 C   0  0  0
    3.3025    1.7338    0.0000 C   0  0  0
    4.5999   -0.5072    0.0000 C   0  0  0
    3.2907    3.2435    0.0000 C   0  0  0
    4.5881    1.0026    0.0000 C   0  0  0
    5.8856   -1.2384    0.0000 C   0  0  0
    1.9815    4.0102    0.0000 O   0  0  0
    4.5763    4.0102    0.0000 N   0  0  0
    7.1712   -0.4836    0.0000 O   0  0  0
    5.8738   -2.7246    0.0000 N   0  0  0
    4.5646    5.5199    0.0000 C   0  0  0
    4.6471   -3.5974    0.0000 C   0  0  0
    7.0768   -3.5974    0.0000 C   0  0  0
    3.2553    6.2748    0.0000 C   0  0  0
    5.8502    6.2748    0.0000 C   0  0  0
    5.0953   -5.0128    0.0000 C   0  0  2
    6.6050   -5.0128    0.0000 C   0  0  0
    3.2435    7.7845    0.0000 C   0  0  0
    5.8384    7.7845    0.0000 C   0  0  0
    4.1989   -6.2158    0.0000 O   0  0  0
    4.5292    8.5512    0.0000 C   0  0  0
    1.9343    8.5512    0.0000 C   0  0  1
    0.6251    7.8081    0.0000 C   0  0  0
    1.9225   10.0609    0.0000 C   0  0  0
   -0.6841    8.5748    0.0000 C   0  0  0
   -2.0641    7.9732    0.0000 N   0  0  0
   -0.8492   10.0727    0.0000 N   0  0  0
   -3.0784    9.0937    0.0000 N   0  0  0
   -2.3236   10.3911    0.0000 C   0  0  0
    0.2477   11.0870    0.0000 C   0  0  0
  1  2  1
  2  3  1
  2  4  1
  2  5  1
  5  6  2
  5  7  1
  6  8  1
  7  9  2
  8 10  1
  8 11  2
  9 12  1
 10 13  2
 10 14  1
 12 15  2
 12 16  1
 14 17  1
 16 18  1
 16 19  1
 17 20  2
 17 21  1
 22 18  1
 19 23  1
 20 24  1
 21 25  2
 22 26  1  6  0
 24 27  2
 28 24  1
 28 29  1
 28 30  1  1  0
 29 31  1
 31 32  2
 31 33  1
 32 34  1
 33 35  1
 33 36  1
  9 11  1
 22 23  1
 25 27  1
 34 35  2
M  END
> <COMPOUND_NAMES>
Example 220 (Stereo) (Page No: 454)

> <Reference>
WO2019148005

> <IC50_range_nM>
<100

> <smiles>
C[C@H](Cc1nncn1C)c1cccc(c1)NC(c1cc(cc(C(F)(F)F)n1)C(N1CC[C@@H](C1)O)=O)=O

$$$$
C25H27F3N6O3
  MOLSOFT 03092310482D

 37 40  0  0  1  0  0  0  0  0999 V2000
    0.0000   -0.0000    0.0000 F   0  0  0
    0.7299    1.3067    0.0000 C   0  0  0
    2.0130    0.5768    0.0000 F   0  0  0
    1.4598    2.6134    0.0000 F   0  0  0
   -0.5768    2.0601    0.0000 C   0  0  0
   -0.5886    3.5670    0.0000 N   0  0  0
   -1.8836    1.3303    0.0000 C   0  0  0
   -1.8953    4.3204    0.0000 C   0  0  0
   -3.1903    2.0837    0.0000 C   0  0  0
   -1.9071    5.8272    0.0000 C   0  0  0
   -3.2020    3.5787    0.0000 C   0  0  0
   -4.4970    1.3538    0.0000 C   0  0  0
   -3.2138    6.5807    0.0000 O   0  0  0
   -0.6239    6.5807    0.0000 N   0  0  0
   -4.5088   -0.1295    0.0000 O   0  0  0
   -5.8037    2.1072    0.0000 N   0  0  0
   -0.6357    8.0875    0.0000 C   0  0  0
   -5.9685    3.6023    0.0000 C   0  0  0
   -7.1810    1.5068    0.0000 C   0  0  0
   -1.9424    8.8409    0.0000 C   0  0  0
    0.6475    8.8409    0.0000 C   0  0  0
   -7.4400    3.9201    0.0000 C   0  0  2
   -8.1935    2.6252    0.0000 C   0  0  0
   -1.9542   10.3478    0.0000 C   0  0  0
    0.6357   10.3478    0.0000 C   0  0  0
   -8.0640    5.2975    0.0000 O   0  0  0
   -0.6710   11.1012    0.0000 C   0  0  0
   -3.2609   11.1012    0.0000 C   0  0  0
   -4.5676   11.8664    0.0000 C   0  0  0
   -4.0143    9.8180    0.0000 C   0  0  0
   -2.5310   12.4079    0.0000 C   0  0  0
   -5.8743   11.1247    0.0000 C   0  0  0
   -7.2517   11.7487    0.0000 N   0  0  0
   -6.0391    9.6532    0.0000 N   0  0  0
   -8.2641   10.6538    0.0000 N   0  0  0
   -7.5107    9.3589    0.0000 C   0  0  0
   -4.9443    8.6643    0.0000 C   0  0  0
  1  2  1
  2  3  1
  2  4  1
  2  5  1
  5  6  2
  5  7  1
  6  8  1
  7  9  2
  8 10  1
  8 11  2
  9 12  1
 10 13  2
 10 14  1
 12 15  2
 12 16  1
 14 17  1
 16 18  1
 16 19  1
 17 20  2
 17 21  1
 22 18  1
 19 23  1
 20 24  1
 21 25  2
 22 26  1  6  0
 24 27  2
 24 28  1
 28 29  1
 28 30  1
 28 31  1
 29 32  1
 32 33  2
 32 34  1
 33 35  1
 34 36  1
 34 37  1
  9 11  1
 22 23  1
 25 27  1
 35 36  2
M  END
> <COMPOUND_NAMES>
Example 475 (S) (Page No: 623)

> <Reference>
WO2019148005

> <IC50_range_nM>
<100

> <smiles>
CC(C)(Cc1nncn1C)c1cccc(c1)NC(c1cc(cc(C(F)(F)F)n1)C(N1CC[C@@H](C1)O)=O)=O

$$$$
C24H29N7O2
  MOLSOFT 03092310482D

 33 36  0  0  1  0  0  0  0  0999 V2000
    0.0000   -0.0000    0.0000 O   0  0  0
   -1.3067   -0.7299    0.0000 C   0  0  0
   -1.3185   -2.2132    0.0000 N   0  0  0
   -2.6134    0.0235    0.0000 C   0  0  0
   -2.5428   -3.0843    0.0000 C   0  0  0
   -0.1177   -3.0843    0.0000 C   0  0  0
   -2.6252    1.5304    0.0000 C   0  0  0
   -3.9201   -0.7063    0.0000 C   0  0  0
   -2.0954   -4.4969    0.0000 C   0  0  2
   -0.5886   -4.4969    0.0000 C   0  0  0
   -3.9319    2.2838    0.0000 C   0  0  0
   -5.2268    0.0471    0.0000 C   0  0  0
   -2.2602   -5.9685    0.0000 N   0  0  0
   -3.4728   -5.0973    0.0000 C   0  0  0
   -5.2386    1.5421    0.0000 N   0  0  0
   -3.9437    3.7906    0.0000 C   0  0  0
   -5.2504    4.5440    0.0000 O   0  0  0
   -2.6605    4.5440    0.0000 N   0  0  0
   -2.6723    6.0509    0.0000 C   0  0  0
   -3.9790    6.8043    0.0000 C   0  0  0
   -1.3891    6.8043    0.0000 C   0  0  0
   -3.9907    8.3111    0.0000 C   0  0  0
   -1.4009    8.3111    0.0000 C   0  0  0
   -2.7076    9.0645    0.0000 C   0  0  0
   -5.2974    9.0645    0.0000 C   0  0  1
   -6.6042    8.3347    0.0000 C   0  0  0
   -5.3092   10.5714    0.0000 C   0  0  0
   -7.9109    9.0881    0.0000 C   0  0  0
   -9.2882    8.4877    0.0000 N   0  0  0
   -8.0757   10.5831    0.0000 N   0  0  0
  -10.3006    9.6060    0.0000 N   0  0  0
   -9.5472   10.9010    0.0000 C   0  0  0
   -6.9809   11.5955    0.0000 C   0  0  0
  1  2  2
  2  3  1
  2  4  1
  3  5  1
  3  6  1
  4  7  2
  4  8  1
  9  5  1
  6 10  1
  7 11  1
  8 12  2
  9 13  1  6  0
  9 14  1
 11 15  2
 11 16  1
 16 17  2
 16 18  1
 18 19  1
 19 20  2
 19 21  1
 20 22  1
 21 23  2
 22 24  2
 25 22  1
 25 26  1
 25 27  1  1  0
 26 28  1
 28 29  2
 28 30  1
 29 31  1
 30 32  1
 30 33  1
  9 10  1
 12 15  1
 23 24  1
 31 32  2
M  END
> <COMPOUND_NAMES>
Example 229 (Stereo) (Page No: 460)

> <Reference>
WO2019148005

> <IC50_range_nM>
1001-3000

> <smiles>
C[C@H](Cc1nncn1C)c1cccc(c1)NC(c1cc(ccn1)C(N1CC[C@@](C)(C1)N)=O)=O

$$$$
C24H29N7O2
  MOLSOFT 03092310482D

 33 36  0  0  1  0  0  0  0  0999 V2000
    0.0000   -0.0000    0.0000 O   0  0  0
   -1.3067   -0.7299    0.0000 C   0  0  0
   -1.3185   -2.2132    0.0000 N   0  0  0
   -2.6134    0.0235    0.0000 C   0  0  0
   -2.5428   -3.0843    0.0000 C   0  0  0
   -0.1177   -3.0843    0.0000 C   0  0  0
   -2.6252    1.5304    0.0000 C   0  0  0
   -3.9201   -0.7063    0.0000 C   0  0  0
   -2.0954   -4.4969    0.0000 C   0  0  2
   -0.5886   -4.4969    0.0000 C   0  0  0
   -3.9319    2.2838    0.0000 C   0  0  0
   -5.2268    0.0471    0.0000 C   0  0  0
   -2.2602   -5.9685    0.0000 N   0  0  0
   -3.4728   -5.0973    0.0000 C   0  0  0
   -5.2386    1.5421    0.0000 N   0  0  0
   -3.9437    3.7906    0.0000 C   0  0  0
   -5.2504    4.5440    0.0000 O   0  0  0
   -2.6605    4.5440    0.0000 N   0  0  0
   -2.6723    6.0509    0.0000 C   0  0  0
   -3.9790    6.8043    0.0000 C   0  0  0
   -1.3891    6.8043    0.0000 C   0  0  0
   -3.9907    8.3111    0.0000 C   0  0  0
   -1.4009    8.3111    0.0000 C   0  0  0
   -2.7076    9.0645    0.0000 C   0  0  0
   -5.2974    9.0645    0.0000 C   0  0  2
   -6.6042    8.3347    0.0000 C   0  0  0
   -5.3092   10.5714    0.0000 C   0  0  0
   -7.9109    9.0881    0.0000 C   0  0  0
   -9.2882    8.4877    0.0000 N   0  0  0
   -8.0757   10.5831    0.0000 N   0  0  0
  -10.3006    9.6060    0.0000 N   0  0  0
   -9.5472   10.9010    0.0000 C   0  0  0
   -6.9809   11.5955    0.0000 C   0  0  0
  1  2  2
  2  3  1
  2  4  1
  3  5  1
  3  6  1
  4  7  2
  4  8  1
  9  5  1
  6 10  1
  7 11  1
  8 12  2
  9 13  1  6  0
  9 14  1
 11 15  2
 11 16  1
 16 17  2
 16 18  1
 18 19  1
 19 20  2
 19 21  1
 20 22  1
 21 23  2
 22 24  2
 25 22  1
 25 26  1
 25 27  1  6  0
 26 28  1
 28 29  2
 28 30  1
 29 31  1
 30 32  1
 30 33  1
  9 10  1
 12 15  1
 23 24  1
 31 32  2
M  END
> <COMPOUND_NAMES>
Example 230 (Stereo) (Page No: 460)

> <Reference>
WO2019148005

> <IC50_range_nM>
3001-10000

> <smiles>
C[C@@H](Cc1nncn1C)c1cccc(c1)NC(c1cc(ccn1)C(N1CC[C@@](C)(C1)N)=O)=O

$$$$
C24H29N7O2
  MOLSOFT 03092310482D

 33 36  0  0  1  0  0  0  0  0999 V2000
    0.0000   -0.0000    0.0000 O   0  0  0
   -1.4328   -0.4463    0.0000 C   0  0  0
   -2.5602    0.5637    0.0000 N   0  0  0
   -1.7616   -1.9026    0.0000 C   0  0  0
   -4.0400    0.2584    0.0000 C   0  0  0
   -2.4193    2.0670    0.0000 C   0  0  0
   -3.1944   -2.3488    0.0000 C   0  0  0
   -0.6577   -2.8891    0.0000 C   0  0  0
   -4.8034    1.5620    0.0000 C   0  0  2
   -3.8051    2.6894    0.0000 C   0  0  0
   -3.5233   -3.8051    0.0000 C   0  0  0
   -0.9865   -4.3454    0.0000 C   0  0  0
   -6.3066    1.7264    0.0000 N   0  0  0
   -2.4193   -4.7916    0.0000 N   0  0  0
   -4.9561   -4.2514    0.0000 C   0  0  0
   -7.1992    0.5285    0.0000 C   0  0  0
   -6.0835   -3.2414    0.0000 O   0  0  0
   -5.2849   -5.7077    0.0000 N   0  0  0
   -6.7177   -6.1540    0.0000 C   0  0  0
   -7.0465   -7.6102    0.0000 C   0  0  0
   -7.8451   -5.1440    0.0000 C   0  0  0
   -8.4793   -8.0565    0.0000 C   0  0  0
   -9.2779   -5.6020    0.0000 C   0  0  0
   -9.6068   -7.0465    0.0000 C   0  0  0
   -8.8082   -9.5128    0.0000 C   0  0  1
  -10.2410   -9.9591    0.0000 C   0  0  0
   -7.7042  -10.4993    0.0000 C   0  0  0
  -10.5698  -11.4154    0.0000 C   0  0  0
   -9.5833  -12.5193    0.0000 N   0  0  0
  -11.9556  -12.0143    0.0000 N   0  0  0
  -10.3466  -13.8112    0.0000 N   0  0  0
  -11.8147  -13.4941    0.0000 C   0  0  0
  -13.2710  -11.2510    0.0000 C   0  0  0
  1  2  2
  2  3  1
  2  4  1
  3  5  1
  3  6  1
  4  7  2
  4  8  1
  9  5  1
  6 10  1
  7 11  1
  8 12  2
  9 13  1  1  0
 11 14  2
 11 15  1
 13 16  1
 15 17  2
 15 18  1
 18 19  1
 19 20  2
 19 21  1
 20 22  1
 21 23  2
 22 24  2
 25 22  1
 25 26  1
 25 27  1  6  0
 26 28  1
 28 29  2
 28 30  1
 29 31  1
 30 32  1
 30 33  1
  9 10  1
 12 14  1
 23 24  1
 31 32  2
M  END
> <COMPOUND_NAMES>
Example 250 (Stereo) (Page No: 467)

> <Reference>
WO2019148005

> <IC50_range_nM>
1001-3000

> <smiles>
C[C@H](Cc1nncn1C)c1cccc(c1)NC(c1cc(ccn1)C(N1CC[C@@H](C1)NC)=O)=O

$$$$
C24H29N7O2
  MOLSOFT 03092310482D

 33 36  0  0  1  0  0  0  0  0999 V2000
    0.0000   -0.0000    0.0000 O   0  0  0
   -1.4328   -0.4463    0.0000 C   0  0  0
   -2.5602    0.5637    0.0000 N   0  0  0
   -1.7616   -1.9026    0.0000 C   0  0  0
   -4.0400    0.2584    0.0000 C   0  0  0
   -2.4193    2.0670    0.0000 C   0  0  0
   -3.1944   -2.3488    0.0000 C   0  0  0
   -0.6577   -2.8891    0.0000 C   0  0  0
   -4.8034    1.5620    0.0000 C   0  0  2
   -3.8051    2.6894    0.0000 C   0  0  0
   -3.5233   -3.8051    0.0000 C   0  0  0
   -0.9865   -4.3454    0.0000 C   0  0  0
   -6.3066    1.7264    0.0000 N   0  0  0
   -2.4193   -4.7916    0.0000 N   0  0  0
   -4.9561   -4.2514    0.0000 C   0  0  0
   -7.1992    0.5285    0.0000 C   0  0  0
   -6.0835   -3.2414    0.0000 O   0  0  0
   -5.2849   -5.7077    0.0000 N   0  0  0
   -6.7177   -6.1540    0.0000 C   0  0  0
   -7.0465   -7.6102    0.0000 C   0  0  0
   -7.8451   -5.1440    0.0000 C   0  0  0
   -8.4793   -8.0565    0.0000 C   0  0  0
   -9.2779   -5.6020    0.0000 C   0  0  0
   -9.6068   -7.0465    0.0000 C   0  0  0
   -8.8082   -9.5128    0.0000 C   0  0  2
  -10.2410   -9.9591    0.0000 C   0  0  0
   -7.7042  -10.4993    0.0000 C   0  0  0
  -10.5698  -11.4154    0.0000 C   0  0  0
   -9.5833  -12.5193    0.0000 N   0  0  0
  -11.9556  -12.0143    0.0000 N   0  0  0
  -10.3466  -13.8112    0.0000 N   0  0  0
  -11.8147  -13.4941    0.0000 C   0  0  0
  -13.2710  -11.2510    0.0000 C   0  0  0
  1  2  2
  2  3  1
  2  4  1
  3  5  1
  3  6  1
  4  7  2
  4  8  1
  9  5  1
  6 10  1
  7 11  1
  8 12  2
  9 13  1  1  0
 11 14  2
 11 15  1
 13 16  1
 15 17  2
 15 18  1
 18 19  1
 19 20  2
 19 21  1
 20 22  1
 21 23  2
 22 24  2
 25 22  1
 25 26  1
 25 27  1  1  0
 26 28  1
 28 29  2
 28 30  1
 29 31  1
 30 32  1
 30 33  1
  9 10  1
 12 14  1
 23 24  1
 31 32  2
M  END
> <COMPOUND_NAMES>
Example 249 (Stereo) (Page No: 467)

> <Reference>
WO2019148005

> <IC50_range_nM>
1001-3000

> <smiles>
C[C@@H](Cc1nncn1C)c1cccc(c1)NC(c1cc(ccn1)C(N1CC[C@@H](C1)NC)=O)=O

$$$$
C23H27N7O2
  MOLSOFT 03092310482D

 32 35  0  0  1  0  0  0  0  0999 V2000
    0.0000   -0.0000    0.0000 O   0  0  0
   -1.3071   -0.7301    0.0000 C   0  0  0
   -1.3189   -2.2139    0.0000 N   0  0  0
   -2.6142    0.0236    0.0000 C   0  0  0
   -0.0353   -2.9440    0.0000 C   0  0  0
   -2.6260   -2.9440    0.0000 C   0  0  0
   -2.6260    1.5309    0.0000 C   0  0  0
   -3.9213   -0.7065    0.0000 C   0  0  0
   -0.0471   -4.4277    0.0000 C   0  0  0
   -2.6378   -4.4277    0.0000 C   0  0  0
   -3.9331    2.2845    0.0000 C   0  0  0
   -5.2285    0.0471    0.0000 C   0  0  0
   -1.3542   -5.1578    0.0000 N   0  0  0
   -5.2402    1.5544    0.0000 N   0  0  0
   -3.9449    3.7918    0.0000 C   0  0  0
   -5.2520    4.5455    0.0000 O   0  0  0
   -2.6613    4.5455    0.0000 N   0  0  0
   -2.6731    6.0528    0.0000 C   0  0  0
   -3.9802    6.8182    0.0000 C   0  0  0
   -1.3895    6.8182    0.0000 C   0  0  0
   -3.9920    8.3255    0.0000 C   0  0  0
   -1.4013    8.3255    0.0000 C   0  0  0
   -2.7084    9.0791    0.0000 C   0  0  0
   -5.2991    9.0791    0.0000 C   0  0  1
   -6.6062    8.3490    0.0000 C   0  0  0
   -5.3109   10.5865    0.0000 C   0  0  0
   -7.9133    9.1027    0.0000 C   0  0  0
   -9.2911    8.5021    0.0000 N   0  0  0
   -8.0782   10.5982    0.0000 N   0  0  0
  -10.3038    9.6208    0.0000 N   0  0  0
   -9.5502   10.9162    0.0000 C   0  0  0
   -6.9831   11.6109    0.0000 C   0  0  0
  1  2  2
  2  3  1
  2  4  1
  3  5  1
  3  6  1
  4  7  2
  4  8  1
  5  9  1
  6 10  1
  7 11  1
  8 12  2
  9 13  1
 11 14  2
 11 15  1
 15 16  2
 15 17  1
 17 18  1
 18 19  2
 18 20  1
 19 21  1
 20 22  2
 21 23  2
 24 21  1
 24 25  1
 24 26  1  1  0
 25 27  1
 27 28  2
 27 29  1
 28 30  1
 29 31  1
 29 32  1
 10 13  1
 12 14  1
 22 23  1
 30 31  2
M  END
> <COMPOUND_NAMES>
Example 242 (R) (Page No: 464)

> <Reference>
WO2019148005

> <IC50_range_nM>
3001-10000

> <smiles>
C[C@H](Cc1nncn1C)c1cccc(c1)NC(c1cc(ccn1)C(N1CCNCC1)=O)=O

$$$$
C24H25N7O2
  MOLSOFT 03092310482D

 33 36  0  0  1  0  0  0  0  0999 V2000
    0.0000   -0.0000    0.0000 O   0  0  0
   -1.3050   -0.7289    0.0000 C   0  0  0
   -1.3168   -2.2103    0.0000 N   0  0  0
   -2.6100    0.0235    0.0000 C   0  0  0
   -2.5394   -3.0803    0.0000 C   0  0  0
   -0.1176   -3.0803    0.0000 C   0  0  0
   -2.6217    1.5284    0.0000 C   0  0  0
   -3.9150   -0.7054    0.0000 C   0  0  0
   -2.0927   -4.4911    0.0000 C   0  0  2
   -0.5878   -4.4911    0.0000 C   0  0  0
   -3.9267    2.2926    0.0000 C   0  0  0
   -5.2200    0.0470    0.0000 C   0  0  0
   -2.9862   -5.6902    0.0000 C   0  0  0
   -5.2317    1.5519    0.0000 N   0  0  0
   -3.9385    3.7974    0.0000 C   0  0  0
   -3.8797   -6.8894    0.0000 N   0  0  0
   -5.2435    4.5498    0.0000 O   0  0  0
   -2.6570    4.5498    0.0000 N   0  0  0
   -2.6688    6.0547    0.0000 C   0  0  0
   -3.9738    6.8189    0.0000 C   0  0  0
   -1.3873    6.8189    0.0000 C   0  0  0
   -3.9855    8.3237    0.0000 C   0  0  0
   -1.3990    8.3237    0.0000 C   0  0  0
   -2.7040    9.0879    0.0000 C   0  0  0
   -5.2905    9.0879    0.0000 C   0  0  1
   -6.5955    8.3473    0.0000 C   0  0  0
   -5.3023   10.5928    0.0000 C   0  0  0
   -7.9005    9.1114    0.0000 C   0  0  0
   -9.2760    8.5119    0.0000 N   0  0  0
   -8.0651   10.6045    0.0000 N   0  0  0
  -10.2871    9.6287    0.0000 N   0  0  0
   -9.5347   10.9220    0.0000 C   0  0  0
   -6.9717   11.6156    0.0000 C   0  0  0
  1  2  2
  2  3  1
  2  4  1
  3  5  1
  3  6  1
  4  7  2
  4  8  1
  9  5  1
  6 10  1
  7 11  1
  8 12  2
  9 13  1  6  0
 11 14  2
 11 15  1
 13 16  3
 15 17  2
 15 18  1
 18 19  1
 19 20  2
 19 21  1
 20 22  1
 21 23  2
 22 24  2
 25 22  1
 25 26  1
 25 27  1  1  0
 26 28  1
 28 29  2
 28 30  1
 29 31  1
 30 32  1
 30 33  1
  9 10  1
 12 14  1
 23 24  1
 31 32  2
M  END
> <COMPOUND_NAMES>
Example 236 (Stereo) (Page No: 462)

> <Reference>
WO2019148005

> <IC50_range_nM>
1001-3000

> <smiles>
C[C@H](Cc1nncn1C)c1cccc(c1)NC(c1cc(ccn1)C(N1CC[C@@H](C1)C#N)=O)=O

$$$$
C24H25N7O2
  MOLSOFT 03092310482D

 33 36  0  0  1  0  0  0  0  0999 V2000
    0.0000   -0.0000    0.0000 O   0  0  0
   -1.3050   -0.7289    0.0000 C   0  0  0
   -1.3168   -2.2103    0.0000 N   0  0  0
   -2.6100    0.0235    0.0000 C   0  0  0
   -2.5394   -3.0803    0.0000 C   0  0  0
   -0.1176   -3.0803    0.0000 C   0  0  0
   -2.6217    1.5284    0.0000 C   0  0  0
   -3.9150   -0.7054    0.0000 C   0  0  0
   -2.0927   -4.4911    0.0000 C   0  0  2
   -0.5878   -4.4911    0.0000 C   0  0  0
   -3.9267    2.2926    0.0000 C   0  0  0
   -5.2200    0.0470    0.0000 C   0  0  0
   -2.9862   -5.6902    0.0000 C   0  0  0
   -5.2317    1.5519    0.0000 N   0  0  0
   -3.9385    3.7974    0.0000 C   0  0  0
   -3.8797   -6.8894    0.0000 N   0  0  0
   -5.2435    4.5498    0.0000 O   0  0  0
   -2.6570    4.5498    0.0000 N   0  0  0
   -2.6688    6.0547    0.0000 C   0  0  0
   -3.9738    6.8189    0.0000 C   0  0  0
   -1.3873    6.8189    0.0000 C   0  0  0
   -3.9855    8.3237    0.0000 C   0  0  0
   -1.3990    8.3237    0.0000 C   0  0  0
   -2.7040    9.0879    0.0000 C   0  0  0
   -5.2905    9.0879    0.0000 C   0  0  2
   -6.5955    8.3473    0.0000 C   0  0  0
   -5.3023   10.5928    0.0000 C   0  0  0
   -7.9005    9.1114    0.0000 C   0  0  0
   -9.2760    8.5119    0.0000 N   0  0  0
   -8.0651   10.6045    0.0000 N   0  0  0
  -10.2871    9.6287    0.0000 N   0  0  0
   -9.5347   10.9220    0.0000 C   0  0  0
   -6.9717   11.6156    0.0000 C   0  0  0
  1  2  2
  2  3  1
  2  4  1
  3  5  1
  3  6  1
  4  7  2
  4  8  1
  9  5  1
  6 10  1
  7 11  1
  8 12  2
  9 13  1  6  0
 11 14  2
 11 15  1
 13 16  3
 15 17  2
 15 18  1
 18 19  1
 19 20  2
 19 21  1
 20 22  1
 21 23  2
 22 24  2
 25 22  1
 25 26  1
 25 27  1  6  0
 26 28  1
 28 29  2
 28 30  1
 29 31  1
 30 32  1
 30 33  1
  9 10  1
 12 14  1
 23 24  1
 31 32  2
M  END
> <COMPOUND_NAMES>
Example 238 (Stereo) (Page No: 463)

> <Reference>
WO2019148005

> <IC50_range_nM>
1001-3000

> <smiles>
C[C@@H](Cc1nncn1C)c1cccc(c1)NC(c1cc(ccn1)C(N1CC[C@@H](C1)C#N)=O)=O

$$$$
C23H26N6O4S
  MOLSOFT 03092310482D

 34 37  0  0  1  0  0  0  0  0999 V2000
    0.0000   -0.0000    0.0000 S   0  0  0
   -0.0118   -1.4807    0.0000 O   0  0  0
    1.4807    0.0118    0.0000 O   0  0  0
   -0.0118    1.5042    0.0000 C   0  0  0
   -1.5042    0.0118    0.0000 C   0  0  0
    1.0341    2.5735    0.0000 C   0  0  0
   -1.0811    2.5735    0.0000 C   0  0  0
   -0.0353    3.6429    0.0000 N   0  0  0
   -0.0470    5.1470    0.0000 C   0  0  0
    1.2339    5.8991    0.0000 O   0  0  0
   -1.3514    5.8991    0.0000 C   0  0  0
   -1.3631    7.4033    0.0000 C   0  0  0
   -2.6558    5.1588    0.0000 C   0  0  0
   -2.6675    8.1553    0.0000 C   0  0  0
   -3.9602    5.9109    0.0000 C   0  0  0
   -3.9719    7.4268    0.0000 N   0  0  0
   -2.6793    9.6595    0.0000 C   0  0  0
   -3.9837   10.4116    0.0000 O   0  0  0
   -1.3984   10.4116    0.0000 N   0  0  0
   -1.4101   11.9157    0.0000 C   0  0  0
   -2.7145   12.6678    0.0000 C   0  0  0
   -0.1293   12.6678    0.0000 C   0  0  0
   -2.7263   14.1720    0.0000 C   0  0  0
   -0.1410   14.1720    0.0000 C   0  0  0
   -1.4454   14.9240    0.0000 C   0  0  0
   -4.0307   14.9240    0.0000 C   0  0  1
   -5.3351   14.1955    0.0000 C   0  0  0
   -4.0424   16.4282    0.0000 C   0  0  0
   -6.6394   14.9475    0.0000 C   0  0  0
   -8.0143   14.3482    0.0000 N   0  0  0
   -6.8040   16.4399    0.0000 N   0  0  0
   -9.0249   15.4646    0.0000 N   0  0  0
   -8.2729   16.7572    0.0000 C   0  0  0
   -5.7111   17.4506    0.0000 C   0  0  0
  1  2  2
  1  3  2
  1  4  1
  1  5  1
  4  6  1
  4  7  1
  6  8  1
  8  9  1
  9 10  2
  9 11  1
 11 12  2
 11 13  1
 12 14  1
 13 15  2
 14 16  2
 14 17  1
 17 18  2
 17 19  1
 19 20  1
 20 21  2
 20 22  1
 21 23  1
 22 24  2
 23 25  2
 26 23  1
 26 27  1
 26 28  1  1  0
 27 29  1
 29 30  2
 29 31  1
 30 32  1
 31 33  1
 31 34  1
  7  8  1
 15 16  1
 24 25  1
 32 33  2
M  END
> <COMPOUND_NAMES>
Example 225 (R) (Page No: 458)

> <Reference>
WO2019148005

> <IC50_range_nM>
1001-3000

> <smiles>
C[C@H](Cc1nncn1C)c1cccc(c1)NC(c1cc(ccn1)C(N1CC(C1)S(C)(=O)=O)=O)=O

$$$$
C23H28N6O2
  MOLSOFT 03092310482D

 31 34  0  0  1  0  0  0  0  0999 V2000
    0.0000   -0.0000    0.0000 O   0  0  0
    1.2865   -0.7436    0.0000 C   0  0  0
    2.5731    0.0236    0.0000 N   0  0  0
    1.2747   -2.2308    0.0000 C   0  0  0
    2.5613    1.5344    0.0000 C   0  0  0
   -0.0354   -2.9626    0.0000 N   0  0  0
    2.5613   -2.9626    0.0000 C   0  0  0
    1.2511    2.2898    0.0000 C   0  0  0
    3.8478    2.2898    0.0000 C   0  0  0
   -0.0472   -4.4498    0.0000 C   0  0  0
    2.5495   -4.4498    0.0000 C   0  0  0
    1.2393    3.8006    0.0000 C   0  0  0
    3.8360    3.8006    0.0000 C   0  0  0
    1.2393   -5.1816    0.0000 C   0  0  0
    3.8360   -5.1816    0.0000 N   0  0  0
    2.5259    4.5678    0.0000 C   0  0  0
   -0.0708    4.5678    0.0000 C   0  0  2
    3.8242   -6.6688    0.0000 C   0  0  1
   -1.3810    3.8242    0.0000 C   0  0  0
   -0.0826    6.0786    0.0000 C   0  0  0
    2.5967   -7.5422    0.0000 C   0  0  0
    5.0282   -7.5422    0.0000 C   0  0  0
   -2.6911    4.5914    0.0000 C   0  0  0
    3.0452   -8.9586    0.0000 C   0  0  2
    4.5560   -8.9586    0.0000 C   0  0  0
   -4.0721    3.9895    0.0000 N   0  0  0
   -2.8564    6.0904    0.0000 N   0  0  0
    2.1482  -10.1625    0.0000 O   0  0  0
   -5.0872    5.1108    0.0000 N   0  0  0
   -4.3318    6.4091    0.0000 C   0  0  0
   -1.7587    7.1055    0.0000 C   0  0  0
  1  2  2
  2  3  1
  2  4  1
  3  5  1
  4  6  2
  4  7  1
  5  8  2
  5  9  1
  6 10  1
  7 11  2
  8 12  1
  9 13  2
 10 14  2
 11 15  1
 12 16  2
 17 12  1
 18 15  1  6  0
 17 19  1
 17 20  1  6  0
 18 21  1
 18 22  1
 19 23  1
 24 21  1
 22 25  1
 23 26  2
 23 27  1
 24 28  1  6  0
 26 29  1
 27 30  1
 27 31  1
 11 14  1
 13 16  1
 24 25  1
 29 30  2
M  END
> <COMPOUND_NAMES>
Example 208 (cis) (Page No: 446)

> <Reference>
WO2019148005

> <IC50_range_nM>
301-1000

> <smiles>
C[C@@H](Cc1nncn1C)c1cccc(c1)NC(c1cc(ccn1)N[C@@H]1CC[C@@H](C1)O)=O

$$$$
C23H28N6O2
  MOLSOFT 03092310482D

 31 34  0  0  1  0  0  0  0  0999 V2000
    0.0000   -0.0000    0.0000 O   0  0  0
    1.2865   -0.7436    0.0000 C   0  0  0
    2.5731    0.0236    0.0000 N   0  0  0
    1.2747   -2.2308    0.0000 C   0  0  0
    2.5613    1.5344    0.0000 C   0  0  0
   -0.0354   -2.9626    0.0000 N   0  0  0
    2.5613   -2.9626    0.0000 C   0  0  0
    1.2511    2.2898    0.0000 C   0  0  0
    3.8478    2.2898    0.0000 C   0  0  0
   -0.0472   -4.4498    0.0000 C   0  0  0
    2.5495   -4.4498    0.0000 C   0  0  0
    1.2393    3.8006    0.0000 C   0  0  0
    3.8360    3.8006    0.0000 C   0  0  0
    1.2393   -5.1816    0.0000 C   0  0  0
    3.8360   -5.1816    0.0000 N   0  0  0
    2.5259    4.5678    0.0000 C   0  0  0
   -0.0708    4.5678    0.0000 C   0  0  1
    3.8242   -6.6688    0.0000 C   0  0  1
   -1.3810    3.8242    0.0000 C   0  0  0
   -0.0826    6.0786    0.0000 C   0  0  0
    2.5967   -7.5422    0.0000 C   0  0  0
    5.0282   -7.5422    0.0000 C   0  0  0
   -2.6911    4.5914    0.0000 C   0  0  0
    3.0452   -8.9586    0.0000 C   0  0  2
    4.5560   -8.9586    0.0000 C   0  0  0
   -4.0721    3.9895    0.0000 N   0  0  0
   -2.8564    6.0904    0.0000 N   0  0  0
    2.1482  -10.1625    0.0000 O   0  0  0
   -5.0872    5.1108    0.0000 N   0  0  0
   -4.3318    6.4091    0.0000 C   0  0  0
   -1.7587    7.1055    0.0000 C   0  0  0
  1  2  2
  2  3  1
  2  4  1
  3  5  1
  4  6  2
  4  7  1
  5  8  2
  5  9  1
  6 10  1
  7 11  2
  8 12  1
  9 13  2
 10 14  2
 11 15  1
 12 16  2
 17 12  1
 18 15  1  6  0
 17 19  1
 17 20  1  1  0
 18 21  1
 18 22  1
 19 23  1
 24 21  1
 22 25  1
 23 26  2
 23 27  1
 24 28  1  6  0
 26 29  1
 27 30  1
 27 31  1
 11 14  1
 13 16  1
 24 25  1
 29 30  2
M  END
> <COMPOUND_NAMES>
Example 204 (Stereo) (Page No: 444)

> <Reference>
WO2019148005

> <IC50_range_nM>
1001-3000

> <smiles>
C[C@H](Cc1nncn1C)c1cccc(c1)NC(c1cc(ccn1)N[C@@H]1CC[C@@H](C1)O)=O

$$$$
C23H27N7O2
  MOLSOFT 03092310482D

 32 35  0  0  1  0  0  0  0  0999 V2000
    0.0000   -0.0000    0.0000 O   0  0  0
    1.2889   -0.7332    0.0000 C   0  0  0
    2.5779    0.0237    0.0000 N   0  0  0
    1.2771   -2.2231    0.0000 C   0  0  0
    2.5660    1.5373    0.0000 C   0  0  0
   -0.0355   -2.9563    0.0000 N   0  0  0
    2.5660   -2.9563    0.0000 C   0  0  0
    1.2535    2.3059    0.0000 C   0  0  0
    3.8550    2.3059    0.0000 C   0  0  0
   -0.0473   -4.4462    0.0000 C   0  0  0
    2.5542   -4.4462    0.0000 C   0  0  0
    1.2416    3.8195    0.0000 C   0  0  0
    3.8431    3.8195    0.0000 C   0  0  0
    1.2416   -5.1794    0.0000 C   0  0  0
    3.8431   -5.1794    0.0000 C   0  0  0
    2.5306    4.5763    0.0000 C   0  0  0
   -0.0710    4.5763    0.0000 C   0  0  1
    5.1321   -4.4226    0.0000 O   0  0  0
    3.8313   -6.6693    0.0000 N   0  0  0
   -1.3835    3.8431    0.0000 C   0  0  0
   -0.0828    6.0899    0.0000 C   0  0  0
    5.1202   -7.4143    0.0000 C   0  0  2
   -2.6961    4.5999    0.0000 C   0  0  0
    5.2621   -8.8924    0.0000 C   0  0  0
    6.4801   -6.7876    0.0000 C   0  0  0
   -4.0796    3.9969    0.0000 N   0  0  0
   -2.8617    6.1017    0.0000 N   0  0  0
    6.7166   -9.1880    0.0000 N   0  0  0
    7.4734   -7.8873    0.0000 C   0  0  0
   -5.0966    5.1202    0.0000 N   0  0  0
   -4.3398    6.4210    0.0000 C   0  0  0
   -1.7619    7.1187    0.0000 C   0  0  0
  1  2  2
  2  3  1
  2  4  1
  3  5  1
  4  6  2
  4  7  1
  5  8  2
  5  9  1
  6 10  1
  7 11  2
  8 12  1
  9 13  2
 10 14  2
 11 15  1
 12 16  2
 17 12  1
 15 18  2
 15 19  1
 17 20  1
 17 21  1  1  0
 22 19  1  1  0
 20 23  1
 22 24  1
 22 25  1
 23 26  2
 23 27  1
 24 28  1
 25 29  1
 26 30  1
 27 31  1
 27 32  1
 11 14  1
 13 16  1
 28 29  1
 30 31  2
M  END
> <COMPOUND_NAMES>
Example 248 (Stereo) (Page No: 466)

> <Reference>
WO2019148005

> <IC50_range_nM>
3001-10000

> <smiles>
C[C@H](Cc1nncn1C)c1cccc(c1)NC(c1cc(ccn1)C(N[C@H]1CCNC1)=O)=O

$$$$
C23H27N7O2
  MOLSOFT 03092310482D

 32 35  0  0  1  0  0  0  0  0999 V2000
    0.0000   -0.0000    0.0000 O   0  0  0
    1.2889   -0.7332    0.0000 C   0  0  0
    2.5779    0.0237    0.0000 N   0  0  0
    1.2771   -2.2231    0.0000 C   0  0  0
    2.5660    1.5373    0.0000 C   0  0  0
   -0.0355   -2.9563    0.0000 N   0  0  0
    2.5660   -2.9563    0.0000 C   0  0  0
    1.2535    2.3059    0.0000 C   0  0  0
    3.8550    2.3059    0.0000 C   0  0  0
   -0.0473   -4.4462    0.0000 C   0  0  0
    2.5542   -4.4462    0.0000 C   0  0  0
    1.2416    3.8195    0.0000 C   0  0  0
    3.8431    3.8195    0.0000 C   0  0  0
    1.2416   -5.1794    0.0000 C   0  0  0
    3.8431   -5.1794    0.0000 C   0  0  0
    2.5306    4.5763    0.0000 C   0  0  0
   -0.0710    4.5763    0.0000 C   0  0  2
    5.1321   -4.4226    0.0000 O   0  0  0
    3.8313   -6.6693    0.0000 N   0  0  0
   -1.3835    3.8431    0.0000 C   0  0  0
   -0.0828    6.0899    0.0000 C   0  0  0
    5.1202   -7.4143    0.0000 C   0  0  2
   -2.6961    4.5999    0.0000 C   0  0  0
    5.2621   -8.8924    0.0000 C   0  0  0
    6.4801   -6.7876    0.0000 C   0  0  0
   -4.0796    3.9969    0.0000 N   0  0  0
   -2.8617    6.1017    0.0000 N   0  0  0
    6.7166   -9.1880    0.0000 N   0  0  0
    7.4734   -7.8873    0.0000 C   0  0  0
   -5.0966    5.1202    0.0000 N   0  0  0
   -4.3398    6.4210    0.0000 C   0  0  0
   -1.7619    7.1187    0.0000 C   0  0  0
  1  2  2
  2  3  1
  2  4  1
  3  5  1
  4  6  2
  4  7  1
  5  8  2
  5  9  1
  6 10  1
  7 11  2
  8 12  1
  9 13  2
 10 14  2
 11 15  1
 12 16  2
 17 12  1
 15 18  2
 15 19  1
 17 20  1
 17 21  1  6  0
 22 19  1  1  0
 20 23  1
 22 24  1
 22 25  1
 23 26  2
 23 27  1
 24 28  1
 25 29  1
 26 30  1
 27 31  1
 27 32  1
 11 14  1
 13 16  1
 28 29  1
 30 31  2
M  END
> <COMPOUND_NAMES>
Example 247 (Stereo) (Page No: 466)

> <Reference>
WO2019148005

> <IC50_range_nM>
3001-10000

> <smiles>
C[C@@H](Cc1nncn1C)c1cccc(c1)NC(c1cc(ccn1)C(N[C@H]1CCNC1)=O)=O

$$$$
C22H27N7O2
  MOLSOFT 03092310482D

 31 33  0  0  1  0  0  0  0  0999 V2000
    0.0000   -0.0000    0.0000 O   0  0  0
    1.1043   -0.9868    0.0000 C   0  0  0
    0.7753   -2.4435    0.0000 N   0  0  0
    2.5140   -0.5169    0.0000 C   0  0  0
   -0.6579   -2.8899    0.0000 C   0  0  0
    3.6183   -1.5154    0.0000 N   0  0  0
    2.8194    0.9633    0.0000 C   0  0  0
   -0.9868   -4.3466    0.0000 C   0  0  0
   -1.7856   -1.8679    0.0000 C   0  0  0
    5.0280   -1.0338    0.0000 C   0  0  0
    4.2292    1.4332    0.0000 C   0  0  0
   -2.4200   -4.7930    0.0000 C   0  0  0
   -3.2189   -2.3260    0.0000 C   0  0  0
    5.3334    0.4464    0.0000 C   0  0  0
    4.5346    2.9134    0.0000 C   0  0  0
   -3.5478   -3.7710    0.0000 C   0  0  0
   -2.7490   -6.2498    0.0000 C   0  0  1
    5.9443    3.3833    0.0000 O   0  0  0
    3.4068    3.9237    0.0000 N   0  0  0
   -4.1939   -6.6962    0.0000 C   0  0  0
   -1.6447   -7.2366    0.0000 C   0  0  0
    3.7123    5.4039    0.0000 C   0  0  0
   -4.5229   -8.1529    0.0000 C   0  0  0
    2.5845    6.4142    0.0000 C   0  0  0
   -3.5360   -9.2572    0.0000 N   0  0  0
   -5.9091   -8.7520    0.0000 N   0  0  0
    2.8899    7.8944    0.0000 N   0  0  0
   -4.2996  -10.5494    0.0000 N   0  0  0
   -5.7681  -10.2322    0.0000 C   0  0  0
   -7.2248   -7.9884    0.0000 C   0  0  0
    1.7622    8.9047    0.0000 C   0  0  0
  1  2  2
  2  3  1
  2  4  1
  3  5  1
  4  6  2
  4  7  1
  5  8  2
  5  9  1
  6 10  1
  7 11  2
  8 12  1
  9 13  2
 10 14  2
 11 15  1
 12 16  2
 17 12  1
 15 18  2
 15 19  1
 17 20  1
 17 21  1  6  0
 19 22  1
 20 23  1
 22 24  1
 23 25  2
 23 26  1
 24 27  1
 25 28  1
 26 29  1
 26 30  1
 27 31  1
 11 14  1
 13 16  1
 28 29  2
M  END
> <COMPOUND_NAMES>
Example 244 (R) (Page No: 465)

> <Reference>
WO2019148005

> <IC50_range_nM>
1001-3000

> <smiles>
C[C@H](Cc1nncn1C)c1cccc(c1)NC(c1cc(ccn1)C(NCCNC)=O)=O

$$$$
C23H28N6O3
  MOLSOFT 03092310482D

 32 34  0  0  1  0  0  0  0  0999 V2000
    0.0000   -0.0000    0.0000 O   0  0  0
    1.2879   -0.7326    0.0000 C   0  0  0
    2.5757    0.0236    0.0000 N   0  0  0
    1.2761   -2.2213    0.0000 C   0  0  0
    2.5639    1.5360    0.0000 C   0  0  0
   -0.0354   -2.9657    0.0000 N   0  0  0
    2.5639   -2.9657    0.0000 C   0  0  0
    1.2524    2.2922    0.0000 C   0  0  0
    3.8518    2.2922    0.0000 C   0  0  0
   -0.0473   -4.4544    0.0000 C   0  0  0
    2.5521   -4.4544    0.0000 C   0  0  0
    1.2406    3.8045    0.0000 C   0  0  0
    3.8400    3.8045    0.0000 C   0  0  0
    1.2406   -5.1988    0.0000 C   0  0  0
    3.8400   -5.1988    0.0000 C   0  0  0
    2.5285    4.5607    0.0000 C   0  0  0
   -0.0709    4.5607    0.0000 C   0  0  1
    5.1279   -4.4426    0.0000 O   0  0  0
    3.8282   -6.6875    0.0000 N   0  0  0
   -1.3824    3.8282    0.0000 C   0  0  0
   -0.0827    6.0731    0.0000 C   0  0  0
    5.1160   -7.4200    0.0000 C   0  0  0
   -2.6939    4.5844    0.0000 C   0  0  0
    5.1042   -8.9088    0.0000 C   0  0  0
   -4.0763    3.9818    0.0000 N   0  0  0
   -2.8593    6.0849    0.0000 N   0  0  0
    6.5930   -8.8970    0.0000 O   0  0  0
    3.5919   -8.8970    0.0000 C   0  0  0
    5.0924  -10.3975    0.0000 C   0  0  0
   -5.0924    5.1042    0.0000 N   0  0  0
   -4.3362    6.4039    0.0000 C   0  0  0
   -1.7605    7.1010    0.0000 C   0  0  0
  1  2  2
  2  3  1
  2  4  1
  3  5  1
  4  6  2
  4  7  1
  5  8  2
  5  9  1
  6 10  1
  7 11  2
  8 12  1
  9 13  2
 10 14  2
 11 15  1
 12 16  2
 17 12  1
 15 18  2
 15 19  1
 17 20  1
 17 21  1  1  0
 19 22  1
 20 23  1
 22 24  1
 23 25  2
 23 26  1
 24 27  1
 24 28  1
 24 29  1
 25 30  1
 26 31  1
 26 32  1
 11 14  1
 13 16  1
 30 31  2
M  END
> <COMPOUND_NAMES>
Example 226 (R) (Page No: 459)

> <Reference>
WO2019148005

> <IC50_range_nM>
3001-10000

> <smiles>
C[C@H](Cc1nncn1C)c1cccc(c1)NC(c1cc(ccn1)C(NCC(C)(C)O)=O)=O

$$$$
C23H26N6O3
  MOLSOFT 03092310482D

 32 35  0  0  1  0  0  0  0  0999 V2000
    0.0000   -0.0000    0.0000 O   0  0  0
    1.2889   -0.7332    0.0000 C   0  0  0
    2.5779    0.0237    0.0000 N   0  0  0
    1.2771   -2.2231    0.0000 C   0  0  0
    2.5660    1.5373    0.0000 C   0  0  0
   -0.0355   -2.9563    0.0000 N   0  0  0
    2.5660   -2.9563    0.0000 C   0  0  0
    1.2535    2.3059    0.0000 C   0  0  0
    3.8550    2.3059    0.0000 C   0  0  0
   -0.0473   -4.4462    0.0000 C   0  0  0
    2.5542   -4.4462    0.0000 C   0  0  0
    1.2416    3.8195    0.0000 C   0  0  0
    3.8431    3.8195    0.0000 C   0  0  0
    1.2416   -5.1794    0.0000 C   0  0  0
    3.8431   -5.1794    0.0000 C   0  0  0
    2.5306    4.5763    0.0000 C   0  0  0
   -0.0710    4.5763    0.0000 C   0  0  1
    5.1321   -4.4226    0.0000 O   0  0  0
    3.8313   -6.6693    0.0000 N   0  0  0
   -1.3835    3.8431    0.0000 C   0  0  0
   -0.0828    6.0899    0.0000 C   0  0  0
    5.1202   -7.4143    0.0000 C   0  0  3
   -2.6961    4.5999    0.0000 C   0  0  0
    5.2621   -8.8924    0.0000 C   0  0  0
    6.4801   -6.7876    0.0000 C   0  0  0
   -4.0796    3.9969    0.0000 N   0  0  0
   -2.8617    6.1017    0.0000 N   0  0  0
    6.7166   -9.1880    0.0000 O   0  0  0
    7.4734   -7.8873    0.0000 C   0  0  0
   -5.0966    5.1202    0.0000 N   0  0  0
   -4.3398    6.4210    0.0000 C   0  0  0
   -1.7619    7.1187    0.0000 C   0  0  0
  1  2  2
  2  3  1
  2  4  1
  3  5  1
  4  6  2
  4  7  1
  5  8  2
  5  9  1
  6 10  1
  7 11  2
  8 12  1
  9 13  2
 10 14  2
 11 15  1
 12 16  2
 17 12  1
 15 18  2
 15 19  1
 17 20  1
 17 21  1  1  0
 22 19  1
 20 23  1
 22 24  1
 22 25  1
 23 26  2
 23 27  1
 24 28  1
 25 29  1
 26 30  1
 27 31  1
 27 32  1
 11 14  1
 13 16  1
 28 29  1
 30 31  2
M  END
> <COMPOUND_NAMES>
Example 228 (R) (Page No: 459)

> <Reference>
WO2019148005

> <IC50_range_nM>
3001-10000

> <smiles>
C[C@H](Cc1nncn1C)c1cccc(c1)NC(c1cc(ccn1)C(NC1CCOC1)=O)=O

$$$$
C24H26FN5O3
  MOLSOFT 03092310482D

 33 36  0  0  1  0  0  0  0  0999 V2000
    0.0000   -0.0000    0.0000 F   0  0  0
    1.2863   -0.7317    0.0000 C   0  0  0
    2.5726    0.0236    0.0000 C   0  0  0
    1.2745   -2.2186    0.0000 C   0  0  0
    2.5608    1.5341    0.0000 C   0  0  0
    3.8589   -0.7081    0.0000 C   0  0  0
    2.5608   -2.9502    0.0000 C   0  0  0
    1.2509    2.3012    0.0000 O   0  0  0
    3.8471    2.3012    0.0000 N   0  0  0
    3.8471   -2.1950    0.0000 C   0  0  0
    3.8353    3.8117    0.0000 C   0  0  0
    5.1334   -2.9266    0.0000 C   0  0  0
    2.5254    4.5670    0.0000 C   0  0  0
    5.1216    4.5670    0.0000 C   0  0  0
    6.4197   -2.1714    0.0000 O   0  0  0
    5.1216   -4.4135    0.0000 N   0  0  0
    2.5136    6.0775    0.0000 C   0  0  0
    5.1098    6.0775    0.0000 C   0  0  0
    3.8943   -5.2868    0.0000 C   0  0  0
    6.3253   -5.2868    0.0000 C   0  0  0
    3.7999    6.8445    0.0000 C   0  0  0
    1.2037    6.8445    0.0000 C   0  0  1
    4.3427   -6.7029    0.0000 C   0  0  2
    5.8533   -6.7029    0.0000 C   0  0  0
   -0.1062    6.1011    0.0000 C   0  0  0
    1.1919    8.3550    0.0000 C   0  0  0
    3.4459   -7.9066    0.0000 O   0  0  0
   -1.4161    6.8681    0.0000 C   0  0  0
   -2.7968    6.2663    0.0000 N   0  0  0
   -1.5813    8.3668    0.0000 N   0  0  0
   -3.8117    7.3874    0.0000 N   0  0  0
   -3.0564    8.6855    0.0000 C   0  0  0
   -0.4838    9.3817    0.0000 C   0  0  0
  1  2  1
  2  3  2
  2  4  1
  3  5  1
  3  6  1
  4  7  2
  5  8  2
  5  9  1
  6 10  2
  9 11  1
 10 12  1
 11 13  2
 11 14  1
 12 15  2
 12 16  1
 13 17  1
 14 18  2
 16 19  1
 16 20  1
 17 21  2
 22 17  1
 23 19  1
 20 24  1
 22 25  1
 22 26  1  1  0
 23 27  1  6  0
 25 28  1
 28 29  2
 28 30  1
 29 31  1
 30 32  1
 30 33  1
  7 10  1
 18 21  1
 23 24  1
 31 32  2
M  END
> <COMPOUND_NAMES>
Example 254 (Stereo) (Page No: 470)

> <Reference>
WO2019148005

> <IC50_range_nM>
1001-3000

> <smiles>
C[C@H](Cc1nncn1C)c1cccc(c1)NC(c1cc(ccc1F)C(N1CC[C@@H](C1)O)=O)=O

$$$$
C25H28N6O3
  MOLSOFT 03092310482D

 34 38  0  0  1  0  0  0  0  0999 V2000
    0.0000   -0.0000    0.0000 O   0  0  0
   -1.3063   -0.7296    0.0000 C   0  0  0
   -1.3181   -2.2125    0.0000 N   0  0  0
   -2.6126    0.0235    0.0000 C   0  0  0
   -2.5420   -3.0833    0.0000 C   0  0  0
   -0.1177   -3.0833    0.0000 C   0  0  0
   -2.6244    1.5299    0.0000 C   0  0  0
   -3.9189   -0.7061    0.0000 C   0  0  0
   -2.0948   -4.4955    0.0000 C   0  0  0
   -0.5884   -4.4955    0.0000 C   0  0  0
   -3.9307    2.2831    0.0000 C   0  0  0
   -5.2252    0.0471    0.0000 C   0  0  0
   -1.8712   -5.9548    0.0000 C   0  0  0
   -3.5776   -4.7191    0.0000 C   0  0  0
   -5.2369    1.5534    0.0000 N   0  0  0
   -3.9424    3.7894    0.0000 C   0  0  0
   -3.3540   -6.1784    0.0000 O   0  0  0
   -5.2487    4.5544    0.0000 O   0  0  0
   -2.6597    4.5544    0.0000 N   0  0  0
   -2.6714    6.0607    0.0000 C   0  0  0
   -3.9777    6.8139    0.0000 C   0  0  0
   -1.3887    6.8139    0.0000 C   0  0  0
   -3.9895    8.3203    0.0000 C   0  0  0
   -1.4004    8.3203    0.0000 C   0  0  0
   -2.7067    9.0852    0.0000 C   0  0  0
   -5.2958    9.0852    0.0000 C   0  0  1
   -6.6021    8.3438    0.0000 C   0  0  0
   -5.3076   10.5916    0.0000 C   0  0  0
   -7.9084    9.1088    0.0000 C   0  0  0
   -9.2853    8.5086    0.0000 N   0  0  0
   -8.0731   10.6033    0.0000 N   0  0  0
  -10.2974    9.6266    0.0000 N   0  0  0
   -9.5442   10.9211    0.0000 C   0  0  0
   -6.9787   11.6154    0.0000 C   0  0  0
  1  2  2
  2  3  1
  2  4  1
  3  5  1
  3  6  1
  4  7  2
  4  8  1
  5  9  1
  6 10  1
  7 11  1
  8 12  2
  9 13  1
  9 14  1
 11 15  2
 11 16  1
 13 17  1
 16 18  2
 16 19  1
 19 20  1
 20 21  2
 20 22  1
 21 23  1
 22 24  2
 23 25  2
 26 23  1
 26 27  1
 26 28  1  1  0
 27 29  1
 29 30  2
 29 31  1
 30 32  1
 31 33  1
 31 34  1
  9 10  1
 12 15  1
 14 17  1
 24 25  1
 32 33  2
M  END
> <COMPOUND_NAMES>
Example 233 (R) (Page No: 461)

> <Reference>
WO2019148005

> <IC50_range_nM>
3001-10000

> <smiles>
C[C@H](Cc1nncn1C)c1cccc(c1)NC(c1cc(ccn1)C(N1CCC2(C1)COC2)=O)=O

$$$$
C25H28N6O3
  MOLSOFT 03092310482D

 34 38  0  0  1  0  0  0  0  0999 V2000
    0.0000   -0.0000    0.0000 O   0  0  0
   -1.3063   -0.7296    0.0000 C   0  0  0
   -1.3181   -2.2125    0.0000 N   0  0  0
   -2.6126    0.0235    0.0000 C   0  0  0
   -2.5420   -3.0833    0.0000 C   0  0  0
   -0.1177   -3.0833    0.0000 C   0  0  0
   -2.6244    1.5299    0.0000 C   0  0  0
   -3.9189   -0.7061    0.0000 C   0  0  0
   -2.0948   -4.4955    0.0000 C   0  0  3
   -0.5884   -4.4955    0.0000 C   0  0  0
   -3.9307    2.2831    0.0000 C   0  0  0
   -5.2252    0.0471    0.0000 C   0  0  0
   -3.5776   -4.7191    0.0000 O   0  0  0
   -1.8712   -5.9548    0.0000 C   0  0  0
   -5.2369    1.5534    0.0000 N   0  0  0
   -3.9424    3.7894    0.0000 C   0  0  0
   -3.3540   -6.1784    0.0000 C   0  0  0
   -5.2487    4.5544    0.0000 O   0  0  0
   -2.6597    4.5544    0.0000 N   0  0  0
   -2.6714    6.0607    0.0000 C   0  0  0
   -3.9777    6.8139    0.0000 C   0  0  0
   -1.3887    6.8139    0.0000 C   0  0  0
   -3.9895    8.3203    0.0000 C   0  0  0
   -1.4004    8.3203    0.0000 C   0  0  0
   -2.7067    9.0852    0.0000 C   0  0  0
   -5.2958    9.0852    0.0000 C   0  0  1
   -6.6021    8.3438    0.0000 C   0  0  0
   -5.3076   10.5916    0.0000 C   0  0  0
   -7.9084    9.1088    0.0000 C   0  0  0
   -9.2853    8.5086    0.0000 N   0  0  0
   -8.0731   10.6033    0.0000 N   0  0  0
  -10.2974    9.6266    0.0000 N   0  0  0
   -9.5442   10.9211    0.0000 C   0  0  0
   -6.9787   11.6154    0.0000 C   0  0  0
  1  2  2
  2  3  1
  2  4  1
  3  5  1
  3  6  1
  4  7  2
  4  8  1
  9  5  1
  6 10  1
  7 11  1
  8 12  2
  9 13  1
  9 14  1
 11 15  2
 11 16  1
 13 17  1
 16 18  2
 16 19  1
 19 20  1
 20 21  2
 20 22  1
 21 23  1
 22 24  2
 23 25  2
 26 23  1
 26 27  1
 26 28  1  1  0
 27 29  1
 29 30  2
 29 31  1
 30 32  1
 31 33  1
 31 34  1
  9 10  1
 12 15  1
 14 17  1
 24 25  1
 32 33  2
M  END
> <COMPOUND_NAMES>
Example 237 (R) (Page No: 462)

> <Reference>
WO2019148005

> <IC50_range_nM>
3001-10000

> <smiles>
C[C@H](Cc1nncn1C)c1cccc(c1)NC(c1cc(ccn1)C(N1CCC2(CCO2)C1)=O)=O

$$$$
C20H21N5O2
  MOLSOFT 03092310482D

 27 30  0  0  0  0  0  0  0  0999 V2000
    0.0000   -0.0000    0.0000 O   0  0  0
   -0.0118    1.5111    0.0000 C   0  0  0
    1.2750    2.2666    0.0000 N   0  0  0
   -1.3222    2.2666    0.0000 C   0  0  0
    2.5617    1.5229    0.0000 C   0  0  0
   -1.3340    3.7777    0.0000 C   0  0  0
   -2.6326    1.5229    0.0000 C   0  0  0
    2.5499    0.0354    0.0000 N   0  0  0
    3.8485    2.2784    0.0000 C   0  0  0
   -2.6444    4.5332    0.0000 C   0  0  0
   -3.9430    2.2784    0.0000 C   0  0  0
    3.8367   -0.6965    0.0000 C   0  0  0
    5.1353    1.5347    0.0000 C   0  0  0
   -3.9548    3.8013    0.0000 C   0  0  0
   -2.6562    6.0443    0.0000 C   0  0  0
    5.1235    0.0590    0.0000 C   0  0  0
    3.8249   -2.1840    0.0000 C   0  0  0
   -3.7305    7.1186    0.0000 C   0  0  0
   -1.6055    7.1186    0.0000 C   0  0  0
   -1.3694    5.3006    0.0000 C   0  0  0
   -2.6798    8.1928    0.0000 O   0  0  0
   -0.0826    6.0679    0.0000 C   0  0  0
    1.2750    5.4658    0.0000 N   0  0  0
    0.0590    7.5672    0.0000 N   0  0  0
    2.2666    6.5873    0.0000 N   0  0  0
    1.5111    7.8859    0.0000 C   0  0  0
   -1.0625    8.5824    0.0000 C   0  0  0
  1  2  2
  2  3  1
  2  4  1
  3  5  1
  4  6  2
  4  7  1
  5  8  2
  5  9  1
  6 10  1
  7 11  2
  8 12  1
  9 13  2
 10 14  2
 10 15  1
 12 16  2
 12 17  1
 15 18  1
 15 19  1
 15 20  1
 18 21  1
 20 22  1
 22 23  2
 22 24  1
 23 25  1
 24 26  1
 24 27  1
 11 14  1
 13 16  1
 19 21  1
 25 26  2
M  END
> <COMPOUND_NAMES>
Compound 38 (Page No: 57, Table No: 1)

> <Reference>
WO 2021/021761 A1

> <IC50_range_nM>
>5000

> <smiles>
Cc1cccc(NC(c2cccc(c2)C2(Cc3nncn3C)COC2)=O)n1

$$$$
C22H23N5O2
  MOLSOFT 03092310482D

 29 33  0  0  0  0  0  0  0  0999 V2000
    0.0000   -0.0000    0.0000 O   0  0  0
   -0.0118    1.5128    0.0000 C   0  0  0
    1.2765    2.2692    0.0000 N   0  0  0
   -1.3237    2.2692    0.0000 C   0  0  0
    2.5647    1.5365    0.0000 C   0  0  0
   -1.3355    3.7821    0.0000 C   0  0  0
   -2.6356    1.5365    0.0000 C   0  0  0
    2.5529    0.0473    0.0000 N   0  0  0
    3.8530    2.2929    0.0000 C   0  0  0
   -2.6475    4.5385    0.0000 C   0  0  0
   -3.9475    2.2929    0.0000 C   0  0  0
    3.8412   -0.6855    0.0000 C   0  0  0
    5.1413    1.5601    0.0000 C   0  0  0
   -3.9594    3.8057    0.0000 C   0  0  0
   -2.6593    6.0513    0.0000 C   0  0  0
    5.1294    0.0709    0.0000 C   0  0  0
    3.8294   -2.1747    0.0000 C   0  0  0
   -3.7348    7.1268    0.0000 C   0  0  0
   -1.6074    7.1268    0.0000 C   0  0  0
   -1.3710    5.3067    0.0000 C   0  0  0
    4.5621   -3.4630    0.0000 C   0  0  0
    3.0729   -3.4630    0.0000 C   0  0  0
   -2.6829    8.2024    0.0000 O   0  0  0
   -0.0827    6.0750    0.0000 C   0  0  0
    1.2765    5.4722    0.0000 N   0  0  0
    0.0591    7.5760    0.0000 N   0  0  0
    2.2692    6.5950    0.0000 N   0  0  0
    1.5128    7.8951    0.0000 C   0  0  0
   -1.0637    8.5924    0.0000 C   0  0  0
  1  2  2
  2  3  1
  2  4  1
  3  5  1
  4  6  2
  4  7  1
  5  8  2
  5  9  1
  6 10  1
  7 11  2
  8 12  1
  9 13  2
 10 14  2
 10 15  1
 12 16  2
 12 17  1
 15 18  1
 15 19  1
 15 20  1
 17 21  1
 17 22  1
 18 23  1
 20 24  1
 24 25  2
 24 26  1
 25 27  1
 26 28  1
 26 29  1
 11 14  1
 13 16  1
 19 23  1
 21 22  1
 27 28  2
M  END
> <COMPOUND_NAMES>
Compound 37 (Page No: 57, Table No: 1)

> <Reference>
WO 2021/021761 A1

> <IC50_range_nM>
>5000

> <smiles>
Cn1cnnc1CC1(COC1)c1cccc(c1)C(Nc1cccc(C2CC2)n1)=O

$$$$
C28H32N6O2
  MOLSOFT 03092310482D

 36 42  0  0  0  0  0  0  0  0999 V2000
    0.0000   -0.0000    0.0000 O   0  0  0
    1.2842   -0.7304    0.0000 C   0  0  0
    2.5684    0.0236    0.0000 N   0  0  0
    1.2724   -2.2149    0.0000 C   0  0  0
    2.5566    1.5316    0.0000 C   0  0  0
    2.5566   -2.9571    0.0000 N   0  0  0
   -0.0353   -2.9571    0.0000 C   0  0  0
    1.2488    2.2856    0.0000 C   0  0  0
    3.8407    2.2856    0.0000 C   0  0  0
    2.5448   -4.4416    0.0000 C   0  0  0
   -0.0471   -4.4416    0.0000 C   0  0  0
    1.2371    3.7936    0.0000 C   0  0  0
    3.8290    3.7936    0.0000 C   0  0  0
    1.2371   -5.1720    0.0000 C   0  0  0
    3.8290   -5.1720    0.0000 C   0  0  0
   -1.3549   -5.1720    0.0000 C   0  0  0
    2.5212    4.5476    0.0000 C   0  0  0
   -0.0707    4.5476    0.0000 C   0  0  0
    5.3134   -5.1603    0.0000 C   0  0  0
    4.5594   -6.4562    0.0000 C   0  0  0
   -2.6626   -4.4180    0.0000 N   0  0  0
   -1.5316    4.1706    0.0000 C   0  0  0
   -0.4713    6.0085    0.0000 C   0  0  0
    1.2135    5.3134    0.0000 C   0  0  0
   -2.8275   -2.9218    0.0000 C   0  0  0
   -4.0410   -5.0189    0.0000 C   0  0  0
   -1.9322    5.6315    0.0000 O   0  0  0
    1.2017    6.8215    0.0000 C   0  0  0
   -4.3002   -2.6037    0.0000 C   0  0  1
   -5.0542   -3.8997    0.0000 C   0  0  2
    2.4034    7.7168    0.0000 N   0  0  0
   -0.0236    7.7168    0.0000 N   0  0  0
   -5.8082   -2.5919    0.0000 C   0  0  0
    1.9322    9.1542    0.0000 N   0  0  0
    0.4241    9.1542    0.0000 C   0  0  0
   -1.4609    7.2691    0.0000 C   0  0  0
  1  2  2
  2  3  1
  2  4  1
  3  5  1
  4  6  2
  4  7  1
  5  8  2
  5  9  1
  6 10  1
  7 11  2
  8 12  1
  9 13  2
 10 14  2
 10 15  1
 11 16  1
 12 17  2
 12 18  1
 15 19  1
 15 20  1
 16 21  1
 18 22  1
 18 23  1
 18 24  1
 21 25  1
 21 26  1
 22 27  1
 24 28  1
 29 25  1  1  0
 30 26  1  1  0
 28 31  2
 28 32  1
 29 33  1
 31 34  1
 32 35  1
 32 36  1
 11 14  1
 13 17  1
 19 20  1
 23 27  1
 29 30  1
 30 33  1
 34 35  2
M  END
> <COMPOUND_NAMES>
Example 498 (Stereo) (Page No: 644)

> <Reference>
WO2019148005

> <IC50_range_nM>
<100

> <smiles>
Cn1cnnc1CC1(COC1)c1cccc(c1)NC(c1cc(CN2C[C@H]3C[C@H]3C2)cc(C2CC2)n1)=O

$$$$
C28H30F2N6O2
  MOLSOFT 03092310482D

 38 44  0  0  0  0  0  0  0  0999 V2000
    0.0000   -0.0000    0.0000 F   0  0  0
    0.7320   -1.2868    0.0000 C   0  0  0
   -0.7792   -1.2750    0.0000 F   0  0  0
    1.4639   -2.5737    0.0000 C   0  0  2
    2.2195   -1.2750    0.0000 C   0  0  1
    2.4556   -3.6716    0.0000 C   0  0  0
    3.6716   -1.5702    0.0000 C   0  0  0
    3.8133   -3.0459    0.0000 N   0  0  0
    5.1001   -3.7779    0.0000 C   0  0  0
    6.3870   -3.0223    0.0000 C   0  0  0
    6.3751   -1.5111    0.0000 C   0  0  0
    7.6738   -3.7543    0.0000 C   0  0  0
    7.6620   -0.7556    0.0000 C   0  0  0
    8.9606   -2.9987    0.0000 C   0  0  0
    8.9488   -1.4875    0.0000 N   0  0  0
    7.6502    0.7556    0.0000 C   0  0  0
   10.2475   -3.7306    0.0000 C   0  0  0
    6.3397    1.5111    0.0000 O   0  0  0
    8.9370    1.5111    0.0000 N   0  0  0
   11.7350   -3.7188    0.0000 C   0  0  0
   10.9912   -5.0175    0.0000 C   0  0  0
    8.9252    3.0223    0.0000 C   0  0  0
    7.6148    3.7779    0.0000 C   0  0  0
   10.2120    3.7779    0.0000 C   0  0  0
    7.6030    5.2890    0.0000 C   0  0  0
   10.2002    5.2890    0.0000 C   0  0  0
    8.8898    6.0446    0.0000 C   0  0  0
    6.2925    6.0446    0.0000 C   0  0  0
    4.8286    5.6668    0.0000 C   0  0  0
    5.8911    7.5085    0.0000 C   0  0  0
    7.5793    6.8120    0.0000 C   0  0  0
    4.4272    7.1307    0.0000 O   0  0  0
    7.5675    8.3231    0.0000 C   0  0  0
    8.7717    9.2203    0.0000 N   0  0  0
    6.3397    9.2203    0.0000 N   0  0  0
    8.2995   10.6607    0.0000 N   0  0  0
    6.7883   10.6607    0.0000 C   0  0  0
    4.8994    8.7717    0.0000 C   0  0  0
  1  2  1
  2  3  1
  4  2  1
  5  2  1
  4  6  1  6  0
  5  7  1  6  0
  6  8  1
  8  9  1
  9 10  1
 10 11  2
 10 12  1
 11 13  1
 12 14  2
 13 15  2
 13 16  1
 14 17  1
 16 18  2
 16 19  1
 17 20  1
 17 21  1
 19 22  1
 22 23  2
 22 24  1
 23 25  1
 24 26  2
 25 27  2
 25 28  1
 28 29  1
 28 30  1
 28 31  1
 29 32  1
 31 33  1
 33 34  2
 33 35  1
 34 36  1
 35 37  1
 35 38  1
  4  5  1
  7  8  1
 14 15  1
 20 21  1
 26 27  1
 30 32  1
 36 37  2
M  END
> <COMPOUND_NAMES>
Example 499 (Stereo) (Page No: 645)

> <Reference>
WO2019148005

> <IC50_range_nM>
<100

> <smiles>
Cn1cnnc1CC1(COC1)c1cccc(c1)NC(c1cc(CN2C[C@@H]3[C@H](C2)C3(F)F)cc(C2CC2)n1)=O

$$$$
C24H26N6O3
  MOLSOFT 03092310482D

 33 37  0  0  1  0  0  0  0  0999 V2000
    0.0000   -0.0000    0.0000 O   0  0  0
   -1.3066   -0.7416    0.0000 C   0  0  0
   -1.3183   -2.2247    0.0000 N   0  0  0
   -2.6132    0.0118    0.0000 C   0  0  0
   -0.1177   -3.0958    0.0000 C   0  0  0
   -2.5425   -3.0958    0.0000 C   0  0  0
   -2.6249    1.5185    0.0000 C   0  0  0
   -3.9197   -0.7298    0.0000 C   0  0  0
   -0.5885   -4.5083    0.0000 C   0  0  1
   -2.0952   -4.5083    0.0000 C   0  0  2
   -3.9315    2.2718    0.0000 C   0  0  0
   -5.2263    0.0235    0.0000 C   0  0  0
   -1.3419   -5.7913    0.0000 C   0  0  0
   -5.2381    1.5420    0.0000 N   0  0  0
   -3.9433    3.7785    0.0000 C   0  0  0
   -1.3537   -7.2744    0.0000 O   0  0  0
   -5.2498    4.5318    0.0000 O   0  0  0
   -2.6602    4.5318    0.0000 N   0  0  0
   -2.6720    6.0385    0.0000 C   0  0  0
   -3.9786    6.7918    0.0000 C   0  0  0
   -1.3890    6.7918    0.0000 C   0  0  0
   -3.9904    8.2985    0.0000 C   0  0  0
   -1.4007    8.2985    0.0000 C   0  0  0
   -2.7073    9.0519    0.0000 C   0  0  0
   -5.2969    9.0519    0.0000 C   0  0  2
   -6.6035    8.3221    0.0000 C   0  0  0
   -5.3087   10.5585    0.0000 C   0  0  0
   -7.9101    9.0754    0.0000 C   0  0  0
   -9.2873    8.4751    0.0000 N   0  0  0
   -8.0749   10.5703    0.0000 N   0  0  0
  -10.2996    9.5933    0.0000 N   0  0  0
   -9.5462   10.8881    0.0000 C   0  0  0
   -6.9802   11.5826    0.0000 C   0  0  0
  1  2  2
  2  3  1
  2  4  1
  3  5  1
  3  6  1
  4  7  2
  4  8  1
  9  5  1  6  0
 10  6  1  6  0
  7 11  1
  8 12  2
  9 13  1
 11 14  2
 11 15  1
 13 16  1
 15 17  2
 15 18  1
 18 19  1
 19 20  2
 19 21  1
 20 22  1
 21 23  2
 22 24  2
 25 22  1
 25 26  1
 25 27  1  6  0
 26 28  1
 28 29  2
 28 30  1
 29 31  1
 30 32  1
 30 33  1
  9 10  1
 10 13  1
 12 14  1
 23 24  1
 31 32  2
M  END
> <COMPOUND_NAMES>
Example 234 (Stereo) (Page No: 461)

> <Reference>
WO2019148005

> <IC50_range_nM>
1001-3000

> <smiles>
C[C@@H](Cc1nncn1C)c1cccc(c1)NC(c1cc(ccn1)C(N1C[C@H]2C([C@H]2C1)O)=O)=O

$$$$
C28H32N6O2
  MOLSOFT 03092310482D

 36 42  0  0  0  0  0  0  0  0999 V2000
    0.0000   -0.0000    0.0000 O   0  0  0
    1.2842   -0.7305    0.0000 C   0  0  0
    2.5685    0.0236    0.0000 N   0  0  0
    1.2725   -2.2150    0.0000 C   0  0  0
    2.5567    1.5317    0.0000 C   0  0  0
    2.5567   -2.9573    0.0000 N   0  0  0
   -0.0353   -2.9573    0.0000 C   0  0  0
    1.2489    2.2857    0.0000 C   0  0  0
    3.8409    2.2857    0.0000 C   0  0  0
    2.5449   -4.4418    0.0000 C   0  0  0
   -0.0471   -4.4418    0.0000 C   0  0  0
    1.2371    3.7938    0.0000 C   0  0  0
    3.8292    3.7938    0.0000 C   0  0  0
    1.2371   -5.1723    0.0000 C   0  0  0
    3.8292   -5.1723    0.0000 C   0  0  0
   -1.3549   -5.1723    0.0000 C   0  0  0
    2.5214    4.5479    0.0000 C   0  0  0
   -0.0707    4.5479    0.0000 C   0  0  0
    5.3137   -5.1605    0.0000 C   0  0  0
    4.5596   -6.4565    0.0000 C   0  0  0
   -2.6627   -4.4183    0.0000 N   0  0  0
   -1.5317    4.1708    0.0000 C   0  0  0
   -0.4713    6.0088    0.0000 C   0  0  0
    1.2135    5.3137    0.0000 C   0  0  0
   -2.8277   -2.9219    0.0000 C   0  0  3
   -4.0412   -5.0191    0.0000 C   0  0  0
   -1.9323    5.6318    0.0000 O   0  0  0
    1.2018    6.8218    0.0000 C   0  0  0
   -4.3004   -2.6038    0.0000 C   0  0  3
   -3.2990   -1.4845    0.0000 C   0  0  0
   -5.0545   -3.8998    0.0000 C   0  0  0
    2.4035    7.7172    0.0000 N   0  0  0
   -0.0236    7.7172    0.0000 N   0  0  0
    1.9323    9.1546    0.0000 N   0  0  0
    0.4242    9.1546    0.0000 C   0  0  0
   -1.4610    7.2695    0.0000 C   0  0  0
  1  2  2
  2  3  1
  2  4  1
  3  5  1
  4  6  2
  4  7  1
  5  8  2
  5  9  1
  6 10  1
  7 11  2
  8 12  1
  9 13  2
 10 14  2
 10 15  1
 11 16  1
 12 17  2
 12 18  1
 15 19  1
 15 20  1
 16 21  1
 18 22  1
 18 23  1
 18 24  1
 25 21  1
 21 26  1
 22 27  1
 24 28  1
 25 29  1
 25 30  1
 26 31  1
 28 32  2
 28 33  1
 32 34  1
 33 35  1
 33 36  1
 11 14  1
 13 17  1
 19 20  1
 23 27  1
 29 30  1
 29 31  1
 34 35  2
M  END
> <COMPOUND_NAMES>
Example 497 (+/-) (Page No: 643)

> <Reference>
WO2019148005

> <IC50_range_nM>
<100

> <smiles>
Cn1cnnc1CC1(COC1)c1cccc(c1)NC(c1cc(CN2CCC3CC23)cc(C2CC2)n1)=O

$$$$
C21H23N5O
  MOLSOFT 03092310482D

 27 30  0  0  1  0  0  0  0  0999 V2000
    0.0000   -0.0000    0.0000 O   0  0  0
    1.2880   -0.7326    0.0000 C   0  0  0
    2.5761    0.0236    0.0000 N   0  0  0
    1.2762   -2.2216    0.0000 C   0  0  0
    2.5643    1.5362    0.0000 C   0  0  0
    2.5643   -2.9542    0.0000 N   0  0  0
   -0.0355   -2.9542    0.0000 C   0  0  0
    1.2526    2.2925    0.0000 C   0  0  0
    3.8523    2.2925    0.0000 C   0  0  0
    2.5524   -4.4431    0.0000 C   0  0  0
   -0.0473   -4.4431    0.0000 C   0  0  0
    1.2408    3.8050    0.0000 C   0  0  0
    3.8405    3.8050    0.0000 C   0  0  0
    1.2408   -5.1758    0.0000 C   0  0  0
    3.8405   -5.1758    0.0000 C   0  0  0
    2.5288    4.5613    0.0000 C   0  0  0
   -0.0709    4.5613    0.0000 C   0  0  1
    1.2289   -6.6647    0.0000 C   0  0  0
    5.3294   -5.1640    0.0000 C   0  0  0
    4.5731   -6.4638    0.0000 C   0  0  0
   -1.3826    3.8287    0.0000 C   0  0  0
   -0.0827    6.0738    0.0000 C   0  0  0
   -2.6942    4.5849    0.0000 C   0  0  0
   -4.0768    3.9823    0.0000 N   0  0  0
   -2.8597    6.0857    0.0000 N   0  0  0
   -5.0931    5.1049    0.0000 N   0  0  0
   -4.3368    6.4047    0.0000 C   0  0  0
  1  2  2
  2  3  1
  2  4  1
  3  5  1
  4  6  2
  4  7  1
  5  8  2
  5  9  1
  6 10  1
  7 11  2
  8 12  1
  9 13  2
 10 14  2
 10 15  1
 12 16  2
 17 12  1
 14 18  1
 15 19  1
 15 20  1
 17 21  1
 17 22  1  1  0
 21 23  1
 23 24  2
 23 25  1
 24 26  1
 25 27  2
 11 14  1
 13 16  1
 19 20  1
 26 27  1
M  END
> <COMPOUND_NAMES>
Example 212 (R) (Page No: 449)

> <Reference>
WO2019148005

> <IC50_range_nM>
301-1000

> <smiles>
Cc1ccc(C(Nc2cccc(c2)[C@H](C)Cc2nc[nH]n2)=O)nc1C1CC1

$$$$
C22H24F3N7O2
  MOLSOFT 03092310482D

 34 37  0  0  1  0  0  0  0  0999 V2000
    0.0000   -0.0000    0.0000 F   0  0  0
    1.4576   -0.3056    0.0000 C   0  0  0
    2.9152   -0.6112    0.0000 F   0  0  0
    1.1285   -1.7632    0.0000 C   0  0  0
    1.7632    1.1755    0.0000 C   0  0  2
    2.1159   -2.8682    0.0000 N   0  0  0
   -0.2586   -2.3627    0.0000 N   0  0  0
    3.2208    0.8698    0.0000 F   0  0  0
    2.0688    2.6566    0.0000 C   0  0  0
    0.2821    1.5046    0.0000 C   0  0  0
    1.3518   -4.1612    0.0000 N   0  0  0
   -0.1175   -3.8438    0.0000 C   0  0  0
   -1.5751   -1.5986    0.0000 C   0  0  0
    0.9404    3.6675    0.0000 C   0  0  0
    3.4794    3.1268    0.0000 C   0  0  0
    1.2460    5.1486    0.0000 C   0  0  0
    3.7850    4.6079    0.0000 C   0  0  0
    0.1175    6.1595    0.0000 O   0  0  0
    2.6566    5.6188    0.0000 N   0  0  0
    5.1956    5.0780    0.0000 N   0  0  0
   -1.3165    5.7128    0.0000 C   0  0  0
    6.3005    4.0789    0.0000 C   0  0  0
   -2.4450    6.7355    0.0000 C   0  0  0
    5.9714    2.6213    0.0000 O   0  0  0
    7.7111    4.5491    0.0000 C   0  0  0
    8.0167    6.0302    0.0000 N   0  0  0
    8.8160    3.5617    0.0000 C   0  0  0
    9.4273    6.5004    0.0000 C   0  0  0
   10.2266    4.0319    0.0000 C   0  0  0
   10.5322    5.5130    0.0000 N   0  0  0
    9.7329    7.9815    0.0000 C   0  0  0
   11.3316    3.0327    0.0000 C   0  0  0
    9.2627    9.4155    0.0000 C   0  0  0
   10.7203    9.1099    0.0000 C   0  0  0
  1  2  1
  2  3  1
  2  4  1
  5  2  1
  4  6  2
  4  7  1
  5  8  1
  5  9  1  1  0
  5 10  1
  6 11  1
  7 12  1
  7 13  1
  9 14  2
  9 15  1
 14 16  1
 15 17  2
 16 18  1
 16 19  2
 17 20  1
 18 21  1
 20 22  1
 21 23  1
 22 24  2
 22 25  1
 25 26  2
 25 27  1
 26 28  1
 27 29  2
 28 30  2
 28 31  1
 29 32  1
 31 33  1
 31 34  1
 11 12  2
 17 19  1
 29 30  1
 33 34  1
M  END
> <COMPOUND_NAMES>
Example 469 (R) (Page No: 614)

> <Reference>
WO2019148005

> <IC50_range_nM>
101-300

> <smiles>
CCOc1cc(cc(NC(c2cc(C)nc(C3CC3)n2)=O)n1)[C@](C)(C(c1nncn1C)(F)F)F

$$$$
C25H27F4N7O
  MOLSOFT 03092310482D

 37 41  0  0  1  0  0  0  0  0999 V2000
    0.0000   -0.0000    0.0000 F   0  0  0
    0.7458    1.3140    0.0000 C   0  0  0
    1.4916    2.6280    0.0000 F   0  0  0
   -0.5682    2.0716    0.0000 C   0  0  0
    2.0361    0.5682    0.0000 C   0  0  2
   -0.7340    3.5750    0.0000 N   0  0  0
   -1.9533    1.4679    0.0000 N   0  0  0
    2.7701    1.8822    0.0000 F   0  0  0
    3.3265   -0.1657    0.0000 C   0  0  0
    1.2785   -0.7221    0.0000 C   0  0  0
   -2.2137    3.8947    0.0000 N   0  0  0
   -2.9713    2.5925    0.0000 C   0  0  0
   -2.2729    0.0118    0.0000 C   0  0  0
    4.6168    0.5919    0.0000 C   0  0  0
    3.3146   -1.6573    0.0000 C   0  0  0
    5.9071   -0.1421    0.0000 C   0  0  0
    4.6049   -2.4031    0.0000 C   0  0  0
    7.1974    0.6156    0.0000 N   0  0  0
    5.8953   -1.6336    0.0000 C   0  0  0
    8.4878   -0.1184    0.0000 C   0  0  0
    8.4759   -1.6100    0.0000 O   0  0  0
    9.7781    0.6392    0.0000 C   0  0  0
    9.7663    2.1545    0.0000 N   0  0  0
   11.0684   -0.0947    0.0000 C   0  0  0
   11.0566    2.9121    0.0000 C   0  0  0
   12.3588    0.6629    0.0000 C   0  0  0
   12.3469    2.1782    0.0000 N   0  0  0
   11.0448    4.4274    0.0000 C   0  0  0
   13.6491   -0.0710    0.0000 C   0  0  0
   10.2871    5.7414    0.0000 C   0  0  0
   11.7787    5.7414    0.0000 C   0  0  0
   13.6373   -1.5626    0.0000 N   0  0  0
   12.4061   -2.4386    0.0000 C   0  0  0
   14.8447   -2.4386    0.0000 C   0  0  0
   12.8560   -3.8592    0.0000 C   0  0  2
   14.3712   -3.8592    0.0000 C   0  0  0
   11.9563   -5.0666    0.0000 F   0  0  0
  1  2  1
  2  3  1
  2  4  1
  5  2  1  6  0
  4  6  2
  4  7  1
  5  8  1
  5  9  1
  5 10  1
  6 11  1
  7 12  1
  7 13  1
  9 14  2
  9 15  1
 14 16  1
 15 17  2
 16 18  1
 16 19  2
 18 20  1
 20 21  2
 20 22  1
 22 23  2
 22 24  1
 23 25  1
 24 26  2
 25 27  2
 25 28  1
 26 29  1
 28 30  1
 28 31  1
 29 32  1
 32 33  1
 32 34  1
 35 33  1
 34 36  1
 35 37  1  6  0
 11 12  2
 17 19  1
 26 27  1
 30 31  1
 35 36  1
M  END
> <COMPOUND_NAMES>
Example 512 (Stereo) (Page No: 652)

> <Reference>
WO2019148005

> <IC50_range_nM>
<100

> <smiles>
C[C@@](c1cccc(c1)NC(c1cc(CN2CC[C@@H](C2)F)nc(C2CC2)n1)=O)(C(c1nncn1C)(F)F)F

$$$$
C26H32N8O2
  MOLSOFT 03092310482D

 36 41  0  0  0  0  0  0  0  0999 V2000
    0.0000   -0.0000    0.0000 O   0  0  0
    1.2856   -0.7313    0.0000 C   0  0  0
    2.5713    0.0236    0.0000 N   0  0  0
    1.2738   -2.2174    0.0000 C   0  0  0
    2.5595    1.5333    0.0000 C   0  0  0
    2.5595   -2.9487    0.0000 N   0  0  0
   -0.0354   -2.9487    0.0000 C   0  0  0
    1.2503    2.2882    0.0000 C   0  0  0
    3.8451    2.2882    0.0000 C   0  0  0
    2.5477   -4.4349    0.0000 C   0  0  0
   -0.0472   -4.4349    0.0000 C   0  0  0
    1.2385    3.7979    0.0000 C   0  0  0
    3.8333    3.7979    0.0000 C   0  0  0
    1.2385   -5.1661    0.0000 N   0  0  0
    3.8333   -5.1661    0.0000 C   0  0  0
   -1.3564   -5.1661    0.0000 N   0  0  0
    2.5241    4.5646    0.0000 C   0  0  0
   -0.0708    4.5646    0.0000 C   0  0  0
    5.3195   -5.1543    0.0000 C   0  0  0
    4.5764   -6.4518    0.0000 C   0  0  0
   -1.3682   -6.6523    0.0000 C   0  0  0
   -2.6656   -4.4113    0.0000 C   0  0  0
   -1.5333    4.1872    0.0000 C   0  0  0
   -0.4718    6.0272    0.0000 C   0  0  0
    1.2149    5.3195    0.0000 C   0  0  0
   -2.6774   -7.3836    0.0000 C   0  0  0
   -3.9749   -5.1425    0.0000 C   0  0  0
   -1.9344    5.6497    0.0000 O   0  0  0
    1.2031    6.8292    0.0000 C   0  0  0
   -3.9867   -6.6287    0.0000 N   0  0  0
    2.4061    7.7256    0.0000 N   0  0  0
   -0.0236    7.7256    0.0000 N   0  0  0
   -5.2959   -7.3600    0.0000 C   0  0  0
    1.9344    9.1646    0.0000 N   0  0  0
    0.4246    9.1646    0.0000 C   0  0  0
   -1.4626    7.2774    0.0000 C   0  0  0
  1  2  2
  2  3  1
  2  4  1
  3  5  1
  4  6  2
  4  7  1
  5  8  2
  5  9  1
  6 10  1
  7 11  2
  8 12  1
  9 13  2
 10 14  2
 10 15  1
 11 16  1
 12 17  2
 12 18  1
 15 19  1
 15 20  1
 16 21  1
 16 22  1
 18 23  1
 18 24  1
 18 25  1
 21 26  1
 22 27  1
 23 28  1
 25 29  1
 26 30  1
 29 31  2
 29 32  1
 30 33  1
 31 34  1
 32 35  1
 32 36  1
 11 14  1
 13 17  1
 19 20  1
 24 28  1
 27 30  1
 34 35  2
M  END
> <COMPOUND_NAMES>
Example 348 (Page No: 537)

> <Reference>
WO2019148005

> <IC50_range_nM>
<100

> <smiles>
CN1CCN(CC1)c1cc(C(Nc2cccc(c2)C2(Cc3nncn3C)COC2)=O)nc(C2CC2)n1

$$$$
C25H27F2N7O2
  MOLSOFT 03092310482D

 36 41  0  0  0  0  0  0  0  0999 V2000
    0.0000   -0.0000    0.0000 F   0  0  0
    1.2853   -0.7311    0.0000 C   0  0  0
    1.2735   -2.2168    0.0000 F   0  0  0
    2.5705    0.0236    0.0000 C   0  0  0
    4.0091   -0.3537    0.0000 C   0  0  0
    2.9479    1.4857    0.0000 C   0  0  0
    4.3864    1.1084    0.0000 N   0  0  0
    5.6717    1.8631    0.0000 C   0  0  0
    6.9570    1.1320    0.0000 N   0  0  0
    5.6599    3.3724    0.0000 C   0  0  0
    8.2422    1.8866    0.0000 C   0  0  0
    6.9452    4.1270    0.0000 C   0  0  0
    8.2304    3.3959    0.0000 N   0  0  0
    9.5275    1.1556    0.0000 C   0  0  0
    6.9334    5.6363    0.0000 C   0  0  0
   11.0132    1.1674    0.0000 C   0  0  0
   10.2586   -0.1297    0.0000 C   0  0  0
    5.6245    6.3910    0.0000 O   0  0  0
    8.2187    6.3910    0.0000 N   0  0  0
    8.2069    7.9003    0.0000 C   0  0  0
    6.8980    8.6549    0.0000 C   0  0  0
    9.4921    8.6549    0.0000 C   0  0  0
    6.8862   10.1643    0.0000 C   0  0  0
    9.4803   10.1643    0.0000 C   0  0  0
    8.1715   10.9189    0.0000 C   0  0  0
    5.5774   10.9189    0.0000 C   0  0  0
    4.1152   10.5416    0.0000 C   0  0  0
    5.1765   12.3810    0.0000 C   0  0  0
    6.8626   11.6736    0.0000 C   0  0  0
    3.7143   12.0037    0.0000 O   0  0  0
    6.8508   13.1829    0.0000 C   0  0  0
    8.0536   14.0790    0.0000 N   0  0  0
    5.6245   14.0790    0.0000 N   0  0  0
    7.5819   15.5176    0.0000 N   0  0  0
    6.0726   15.5176    0.0000 C   0  0  0
    4.1860   13.6309    0.0000 C   0  0  0
  1  2  1
  2  3  1
  2  4  1
  4  5  1
  4  6  1
  5  7  1
  7  8  1
  8  9  2
  8 10  1
  9 11  1
 10 12  2
 11 13  2
 11 14  1
 12 15  1
 14 16  1
 14 17  1
 15 18  2
 15 19  1
 19 20  1
 20 21  2
 20 22  1
 21 23  1
 22 24  2
 23 25  2
 23 26  1
 26 27  1
 26 28  1
 26 29  1
 27 30  1
 29 31  1
 31 32  2
 31 33  1
 32 34  1
 33 35  1
 33 36  1
  6  7  1
 12 13  1
 16 17  1
 24 25  1
 28 30  1
 34 35  2
M  END
> <COMPOUND_NAMES>
Example 610 (Page No: 721)

> <Reference>
WO2019148005

> <IC50_range_nM>
<100

> <smiles>
Cn1cnnc1CC1(COC1)c1cccc(c1)NC(c1cc(nc(C2CC2)n1)N1CC(C1)C(F)F)=O

$$$$
C27H32N8O2
  MOLSOFT 03092310482D

 37 43  0  0  0  0  0  0  0  0999 V2000
    0.0000   -0.0000    0.0000 O   0  0  0
    1.3158   -0.7485    0.0000 C   0  0  0
    2.6317    0.0241    0.0000 N   0  0  0
    1.3038   -2.2695    0.0000 C   0  0  0
    2.6196    1.5693    0.0000 C   0  0  0
    2.6196   -3.0179    0.0000 N   0  0  0
   -0.0362   -3.0179    0.0000 C   0  0  0
    1.2796    2.3419    0.0000 C   0  0  0
    3.9354    2.3419    0.0000 C   0  0  0
    2.6075   -4.5390    0.0000 C   0  0  0
   -0.0483   -4.5390    0.0000 C   0  0  0
    1.2675    3.8871    0.0000 C   0  0  0
    3.9233    3.8871    0.0000 C   0  0  0
    1.2675   -5.2874    0.0000 N   0  0  0
    3.9233   -5.2874    0.0000 C   0  0  0
   -1.3883   -5.2874    0.0000 N   0  0  0
    2.5834    4.6597    0.0000 C   0  0  0
   -0.0724    4.6597    0.0000 C   0  0  0
    5.4444   -5.2754    0.0000 C   0  0  0
    4.6718   -6.6033    0.0000 C   0  0  0
   -2.9334   -5.8307    0.0000 C   0  0  3
   -2.2454   -6.0963    0.0000 C   0  0  3
   -1.5693    4.2734    0.0000 C   0  0  0
   -0.4829    6.1566    0.0000 C   0  0  0
    1.2434    5.4323    0.0000 C   0  0  0
   -3.9113   -5.0822    0.0000 C   0  0  0
   -2.7524   -7.3397    0.0000 C   0  0  0
   -3.3077   -5.1064    0.0000 C   0  0  0
   -1.9798    5.7703    0.0000 O   0  0  0
    1.2313    6.9775    0.0000 C   0  0  0
   -3.4767   -3.9354    0.0000 N   0  0  0
    2.4626    7.8950    0.0000 N   0  0  0
   -0.0241    7.8950    0.0000 N   0  0  0
   -3.3077   -2.4023    0.0000 C   0  0  0
    1.9798    9.3677    0.0000 N   0  0  0
    0.4346    9.3677    0.0000 C   0  0  0
   -1.4969    7.4362    0.0000 C   0  0  0
  1  2  2
  2  3  1
  2  4  1
  3  5  1
  4  6  2
  4  7  1
  5  8  2
  5  9  1
  6 10  1
  7 11  2
  8 12  1
  9 13  2
 10 14  2
 10 15  1
 11 16  1
 12 17  2
 12 18  1
 15 19  1
 15 20  1
 21 16  1
 22 16  1
 18 23  1
 18 24  1
 18 25  1
 21 26  1
 21 27  1
 22 28  1
 23 29  1
 25 30  1
 26 31  1
 30 32  2
 30 33  1
 31 34  1
 32 35  1
 33 36  1
 33 37  1
 11 14  1
 13 17  1
 19 20  1
 22 27  1
 24 29  1
 28 31  1
 35 36  2
M  END
> <COMPOUND_NAMES>
Example 572 (+/-) (Page No: 698)

> <Reference>
WO2019148005

> <IC50_range_nM>
<100

> <smiles>
CN1CC2CC(C1)N2c1cc(C(Nc2cccc(c2)C2(Cc3nncn3C)COC2)=O)nc(C2CC2)n1

$$$$
C28H34N8O2
  MOLSOFT 03092310482D

 38 44  0  0  0  0  0  0  0  0999 V2000
    0.0000   -0.0000    0.0000 O   0  0  0
    1.2265   -0.7068    0.0000 C   0  0  0
    2.4531    0.0416    0.0000 N   0  0  0
    1.2058   -2.1205    0.0000 C   0  0  0
    2.4323    1.4968    0.0000 C   0  0  0
    2.4323   -2.8273    0.0000 N   0  0  0
   -0.0624   -2.8273    0.0000 C   0  0  0
    1.1642    2.2452    0.0000 C   0  0  0
    3.6588    2.2452    0.0000 C   0  0  0
    2.4115   -4.2409    0.0000 C   0  0  0
   -0.0832   -4.2409    0.0000 C   0  0  0
    1.1434    3.7004    0.0000 C   0  0  0
    3.6380    3.7004    0.0000 C   0  0  0
    1.1434   -4.9477    0.0000 N   0  0  0
    3.6380   -4.9477    0.0000 C   0  0  0
   -1.3513   -4.9477    0.0000 N   0  0  0
    2.3699    4.4488    0.0000 C   0  0  0
   -0.1247    4.4488    0.0000 C   0  0  0
    5.0517   -4.9269    0.0000 C   0  0  0
    4.3449   -6.1743    0.0000 C   0  0  0
   -4.0122   -6.0080    0.0000 C   0  0  3
   -2.5362   -6.0495    0.0000 C   0  0  3
   -1.5384    4.0954    0.0000 C   0  0  0
   -0.5197    5.8624    0.0000 C   0  0  0
    1.1018    5.1972    0.0000 C   0  0  0
   -3.7628   -7.4632    0.0000 C   0  0  0
   -5.0309   -4.9477    0.0000 C   0  0  0
   -2.4323   -7.4216    0.0000 C   0  0  0
   -3.5965   -5.0309    0.0000 C   0  0  0
   -1.9334    5.5090    0.0000 O   0  0  0
    1.0810    6.6524    0.0000 C   0  0  0
   -1.4760   -8.3363    0.0000 N   0  0  0
    2.2244    7.5256    0.0000 N   0  0  0
   -0.1039    7.5256    0.0000 N   0  0  0
   -0.2703   -9.0847    0.0000 C   0  0  0
    1.7670    8.9184    0.0000 N   0  0  0
    0.3118    8.9184    0.0000 C   0  0  0
   -1.4968    7.1098    0.0000 C   0  0  0
  1  2  2
  2  3  1
  2  4  1
  3  5  1
  4  6  2
  4  7  1
  5  8  2
  5  9  1
  6 10  1
  7 11  2
  8 12  1
  9 13  2
 10 14  2
 10 15  1
 11 16  1
 12 17  2
 12 18  1
 15 19  1
 15 20  1
 21 16  1
 22 16  1
 18 23  1
 18 24  1
 18 25  1
 21 26  1
 21 27  1
 22 28  1
 22 29  1
 23 30  1
 25 31  1
 26 32  1
 31 33  2
 31 34  1
 32 35  1
 33 36  1
 34 37  1
 34 38  1
 11 14  1
 13 17  1
 19 20  1
 24 30  1
 27 29  1
 28 32  1
 36 37  2
M  END
> <COMPOUND_NAMES>
Example 573 (+/-) (Page No: 699)

> <Reference>
WO2019148005

> <IC50_range_nM>
<100

> <smiles>
CN1CC2CCC(C1)N2c1cc(C(Nc2cccc(c2)C2(Cc3nncn3C)COC2)=O)nc(C2CC2)n1

$$$$
C22H22N8O
  MOLSOFT 03092310482D

 31 35  0  0  0  0  0  0  0  0999 V2000
    0.0000   -0.0000    0.0000 O   0  0  0
    1.2876   -0.7324    0.0000 C   0  0  0
    2.5752    0.0236    0.0000 N   0  0  0
    1.2758   -2.2208    0.0000 C   0  0  0
    2.5634    1.5357    0.0000 C   0  0  0
   -0.0354   -2.9650    0.0000 N   0  0  0
    2.5634   -2.9650    0.0000 C   0  0  0
    1.2522    2.2917    0.0000 C   0  0  0
    3.8510    2.2917    0.0000 C   0  0  0
   -0.0473   -4.4534    0.0000 C   0  0  0
    2.5516   -4.4534    0.0000 C   0  0  0
    1.2403    3.8037    0.0000 C   0  0  0
    3.8392    3.8037    0.0000 C   0  0  0
    1.2403   -5.1858    0.0000 N   0  0  0
   -1.3585   -5.1858    0.0000 C   0  0  0
    3.8392   -5.1858    0.0000 C   0  0  0
   -0.0709    4.5597    0.0000 C   0  0  0
    2.5279    4.5597    0.0000 C   0  0  0
   -2.1145   -6.4734    0.0000 C   0  0  0
   -2.8705   -5.1740    0.0000 C   0  0  0
   -1.4530    3.9573    0.0000 N   0  0  0
   -0.2363    6.0600    0.0000 C   0  0  0
   -2.4689    5.0795    0.0000 N   0  0  0
   -1.7719    2.5043    0.0000 C   0  0  0
    0.8623    7.0759    0.0000 C   0  0  0
   -1.7129    6.3789    0.0000 C   0  0  0
    2.3153    6.7806    0.0000 N   0  0  0
    0.6970    8.5761    0.0000 N   0  0  0
    3.0477    8.0918    0.0000 N   0  0  0
    2.0554    9.2022    0.0000 C   0  0  0
   -0.6143    9.3439    0.0000 C   0  0  0
  1  2  2
  2  3  1
  2  4  1
  3  5  1
  4  6  2
  4  7  1
  5  8  2
  5  9  1
  6 10  1
  7 11  2
  8 12  1
  9 13  2
 10 14  2
 10 15  1
 11 16  1
 12 17  1
 12 18  2
 15 19  1
 15 20  1
 17 21  1
 17 22  2
 21 23  1
 21 24  1
 22 25  1
 22 26  1
 25 27  2
 25 28  1
 27 29  1
 28 30  1
 28 31  1
 11 14  1
 13 18  1
 19 20  1
 23 26  2
 29 30  2
M  END
> <COMPOUND_NAMES>
Example 522 (Page No: 662)

> <Reference>
WO2019148005

> <IC50_range_nM>
101-300

> <smiles>
Cc1cc(C(Nc2cccc(c2)c2c(cnn2C)c2nncn2C)=O)nc(C2CC2)n1

$$$$
C20H21N5OS
  MOLSOFT 03092310482D

 27 30  0  0  1  0  0  0  0  0999 V2000
    0.0000   -0.0000    0.0000 S   0  0  0
    0.1425   -1.4842    0.0000 C   0  0  0
   -1.4842    0.3206    0.0000 C   0  0  0
   -1.2467   -2.0897    0.0000 N   0  0  0
    1.4367   -2.2204    0.0000 C   0  0  0
   -2.2441   -0.9736    0.0000 N   0  0  0
    2.7309   -1.4604    0.0000 C   0  0  2
    4.0251   -2.1966    0.0000 C   0  0  0
    2.7190    0.0594    0.0000 C   0  0  0
    4.0133   -3.6927    0.0000 C   0  0  0
    5.3193   -1.4367    0.0000 C   0  0  0
    5.3075   -4.4288    0.0000 C   0  0  0
    6.6136   -2.1729    0.0000 C   0  0  0
    5.2956   -5.9249    0.0000 N   0  0  0
    6.6017   -3.6689    0.0000 C   0  0  0
    3.9776   -6.6611    0.0000 C   0  0  0
    2.6597   -5.9011    0.0000 O   0  0  0
    3.9658   -8.1571    0.0000 C   0  0  0
    5.2600   -8.8933    0.0000 N   0  0  0
    2.6478   -8.8933    0.0000 C   0  0  0
    5.2481  -10.3893    0.0000 C   0  0  0
    2.6359  -10.3893    0.0000 C   0  0  0
    3.9301  -11.1255    0.0000 N   0  0  0
    6.5423  -11.1255    0.0000 C   0  0  0
    1.3180  -11.1255    0.0000 C   0  0  0
    8.0384  -11.1136    0.0000 C   0  0  0
    7.2785  -12.4197    0.0000 C   0  0  0
  1  2  1
  1  3  1
  2  4  2
  2  5  1
  3  6  2
  7  5  1
  7  8  1
  7  9  1  1  0
  8 10  2
  8 11  1
 10 12  1
 11 13  2
 12 14  1
 12 15  2
 14 16  1
 16 17  2
 16 18  1
 18 19  2
 18 20  1
 19 21  1
 20 22  2
 21 23  2
 21 24  1
 22 25  1
 24 26  1
 24 27  1
  4  6  1
 13 15  1
 22 23  1
 26 27  1
M  END
> <COMPOUND_NAMES>
Example 334 (R) (Page No: 528)

> <Reference>
WO2019148005

> <IC50_range_nM>
101-300

> <smiles>
Cc1cc(C(Nc2cccc(c2)[C@H](C)Cc2nncs2)=O)nc(C2CC2)n1

$$$$
C23H25N5O2
  MOLSOFT 03092310482D

 30 34  0  0  0  0  0  0  0  0999 V2000
    0.0000   -0.0000    0.0000 O   0  0  0
    1.2875    0.7560    0.0000 C   0  0  0
    1.2757    2.2679    0.0000 N   0  0  0
    2.5750    0.0236    0.0000 C   0  0  0
   -0.0354    3.0239    0.0000 C   0  0  0
    3.8625    0.7796    0.0000 N   0  0  0
    2.5632   -1.4647    0.0000 C   0  0  0
   -1.3466    2.2915    0.0000 C   0  0  0
   -0.0472    4.5358    0.0000 C   0  0  0
    5.1501    0.0472    0.0000 C   0  0  0
    3.8507   -2.1970    0.0000 C   0  0  0
   -2.6577    3.0475    0.0000 C   0  0  0
   -1.3584    5.2918    0.0000 C   0  0  0
    5.1382   -1.4411    0.0000 N   0  0  0
    6.4376    0.8032    0.0000 C   0  0  0
    3.8389   -3.6854    0.0000 C   0  0  0
   -2.6695    4.5595    0.0000 C   0  0  0
   -3.9689    2.3152    0.0000 C   0  0  0
    7.1817    2.1144    0.0000 C   0  0  0
    7.9259    0.8150    0.0000 C   0  0  0
   -5.4335    1.9372    0.0000 C   0  0  0
   -4.3705    3.7799    0.0000 C   0  0  0
   -2.6813    1.5710    0.0000 C   0  0  0
   -5.8352    3.4019    0.0000 O   0  0  0
   -2.6931    0.0827    0.0000 C   0  0  0
   -1.4883   -0.7914    0.0000 N   0  0  0
   -3.9216   -0.7914    0.0000 C   0  0  0
   -1.9608   -2.2089    0.0000 N   0  0  0
   -3.4727   -2.2089    0.0000 C   0  0  0
   -5.3627   -0.3189    0.0000 C   0  0  0
  1  2  2
  2  3  1
  2  4  1
  3  5  1
  4  6  2
  4  7  1
  5  8  2
  5  9  1
  6 10  1
  7 11  2
  8 12  1
  9 13  2
 10 14  2
 10 15  1
 11 16  1
 12 17  2
 12 18  1
 15 19  1
 15 20  1
 18 21  1
 18 22  1
 18 23  1
 21 24  1
 23 25  1
 25 26  2
 25 27  1
 26 28  1
 27 29  2
 27 30  1
 11 14  1
 13 17  1
 19 20  1
 22 24  1
 28 29  1
M  END
> <COMPOUND_NAMES>
Example 510 (Page No: 652)

> <Reference>
WO2019148005

> <IC50_range_nM>
<100

> <smiles>
Cc1c[nH]nc1CC1(COC1)c1cccc(c1)NC(c1cc(C)nc(C2CC2)n1)=O

$$$$
C23H26N4O
  MOLSOFT 03092310482D

 28 31  0  0  1  0  0  0  0  0999 V2000
    0.0000   -0.0000    0.0000 O   0  0  0
    1.2881   -0.7327    0.0000 C   0  0  0
    2.5762    0.0236    0.0000 N   0  0  0
    1.2763   -2.2217    0.0000 C   0  0  0
    2.5644    1.5363    0.0000 C   0  0  0
    2.5644   -2.9544    0.0000 N   0  0  0
   -0.0355   -2.9544    0.0000 C   0  0  0
    1.2527    2.2926    0.0000 C   0  0  0
    3.8525    2.2926    0.0000 C   0  0  0
    2.5526   -4.4434    0.0000 C   0  0  0
   -0.0473   -4.4434    0.0000 C   0  0  0
    1.2409    3.8053    0.0000 C   0  0  0
    3.8407    3.8053    0.0000 C   0  0  0
    1.2409   -5.1761    0.0000 C   0  0  0
    3.8407   -5.1761    0.0000 C   0  0  0
    2.5290    4.5616    0.0000 C   0  0  0
   -0.0709    4.5616    0.0000 C   0  0  1
    1.2290   -6.6651    0.0000 C   0  0  0
    5.3298   -5.1643    0.0000 C   0  0  0
    4.5734   -6.4642    0.0000 C   0  0  0
   -1.3827    3.8289    0.0000 C   0  0  0
   -0.0827    6.0743    0.0000 C   0  0  0
   -2.6944    4.5852    0.0000 C   0  0  0
   -4.0771    3.9825    0.0000 N   0  0  0
   -2.8599    6.0861    0.0000 N   0  0  0
   -5.0934    5.1052    0.0000 C   0  0  0
   -4.3371    6.4052    0.0000 C   0  0  0
   -1.7608    7.1024    0.0000 C   0  0  0
  1  2  2
  2  3  1
  2  4  1
  3  5  1
  4  6  2
  4  7  1
  5  8  2
  5  9  1
  6 10  1
  7 11  2
  8 12  1
  9 13  2
 10 14  2
 10 15  1
 12 16  2
 17 12  1
 14 18  1
 15 19  1
 15 20  1
 17 21  1
 17 22  1  1  0
 21 23  1
 23 24  2
 23 25  1
 24 26  1
 25 27  1
 25 28  1
 11 14  1
 13 16  1
 19 20  1
 26 27  2
M  END
> <COMPOUND_NAMES>
Example 331a (R) (Page No: 526)

> <Reference>
WO2019148005

> <IC50_range_nM>
301-1000

> <smiles>
Cc1ccc(C(Nc2cccc(c2)[C@H](C)Cc2nccn2C)=O)nc1C1CC1

$$$$
C23H26N4O
  MOLSOFT 03092310482D

 28 31  0  0  1  0  0  0  0  0999 V2000
    0.0000   -0.0000    0.0000 O   0  0  0
    1.2881   -0.7327    0.0000 C   0  0  0
    2.5762    0.0236    0.0000 N   0  0  0
    1.2763   -2.2217    0.0000 C   0  0  0
    2.5644    1.5363    0.0000 C   0  0  0
    2.5644   -2.9544    0.0000 N   0  0  0
   -0.0355   -2.9544    0.0000 C   0  0  0
    1.2527    2.2926    0.0000 C   0  0  0
    3.8525    2.2926    0.0000 C   0  0  0
    2.5526   -4.4434    0.0000 C   0  0  0
   -0.0473   -4.4434    0.0000 C   0  0  0
    1.2409    3.8053    0.0000 C   0  0  0
    3.8407    3.8053    0.0000 C   0  0  0
    1.2409   -5.1761    0.0000 C   0  0  0
    3.8407   -5.1761    0.0000 C   0  0  0
    2.5290    4.5616    0.0000 C   0  0  0
   -0.0709    4.5616    0.0000 C   0  0  2
    1.2290   -6.6651    0.0000 C   0  0  0
    5.3298   -5.1643    0.0000 C   0  0  0
    4.5734   -6.4642    0.0000 C   0  0  0
   -1.3827    3.8289    0.0000 C   0  0  0
   -0.0827    6.0743    0.0000 C   0  0  0
   -2.6944    4.5852    0.0000 C   0  0  0
   -4.0771    3.9825    0.0000 N   0  0  0
   -2.8599    6.0861    0.0000 N   0  0  0
   -5.0934    5.1052    0.0000 C   0  0  0
   -4.3371    6.4052    0.0000 C   0  0  0
   -1.7608    7.1024    0.0000 C   0  0  0
  1  2  2
  2  3  1
  2  4  1
  3  5  1
  4  6  2
  4  7  1
  5  8  2
  5  9  1
  6 10  1
  7 11  2
  8 12  1
  9 13  2
 10 14  2
 10 15  1
 12 16  2
 17 12  1
 14 18  1
 15 19  1
 15 20  1
 17 21  1
 17 22  1  6  0
 21 23  1
 23 24  2
 23 25  1
 24 26  1
 25 27  1
 25 28  1
 11 14  1
 13 16  1
 19 20  1
 26 27  2
M  END
> <COMPOUND_NAMES>
Example 331b (S) (Page No: 526)

> <Reference>
WO2019148005

> <IC50_range_nM>
301-1000

> <smiles>
Cc1ccc(C(Nc2cccc(c2)[C@@H](C)Cc2nccn2C)=O)nc1C1CC1

$$$$
C23H26N4O
  MOLSOFT 03092310482D

 28 31  0  0  0  0  0  0  0  0999 V2000
    0.0000   -0.0000    0.0000 O   0  0  0
    1.2881   -0.7327    0.0000 C   0  0  0
    2.5762    0.0236    0.0000 N   0  0  0
    1.2763   -2.2217    0.0000 C   0  0  0
    2.5644    1.5363    0.0000 C   0  0  0
    2.5644   -2.9544    0.0000 N   0  0  0
   -0.0355   -2.9544    0.0000 C   0  0  0
    1.2527    2.2926    0.0000 C   0  0  0
    3.8525    2.2926    0.0000 C   0  0  0
    2.5526   -4.4434    0.0000 C   0  0  0
   -0.0473   -4.4434    0.0000 C   0  0  0
    1.2409    3.8053    0.0000 C   0  0  0
    3.8407    3.8053    0.0000 C   0  0  0
    1.2409   -5.1761    0.0000 C   0  0  0
    3.8407   -5.1761    0.0000 C   0  0  0
    2.5290    4.5616    0.0000 C   0  0  0
   -0.0709    4.5616    0.0000 C   0  0  3
    1.2290   -6.6651    0.0000 C   0  0  0
    5.3298   -5.1643    0.0000 C   0  0  0
    4.5734   -6.4642    0.0000 C   0  0  0
   -1.3827    3.8289    0.0000 C   0  0  0
   -0.0827    6.0743    0.0000 C   0  0  0
   -2.6944    4.5852    0.0000 C   0  0  0
   -4.0771    3.9825    0.0000 N   0  0  0
   -2.8599    6.0861    0.0000 N   0  0  0
   -5.0934    5.1052    0.0000 C   0  0  0
   -4.3371    6.4052    0.0000 C   0  0  0
   -1.7608    7.1024    0.0000 C   0  0  0
  1  2  2
  2  3  1
  2  4  1
  3  5  1
  4  6  2
  4  7  1
  5  8  2
  5  9  1
  6 10  1
  7 11  2
  8 12  1
  9 13  2
 10 14  2
 10 15  1
 12 16  2
 17 12  1
 14 18  1
 15 19  1
 15 20  1
 17 21  1
 17 22  1
 21 23  1
 23 24  2
 23 25  1
 24 26  1
 25 27  1
 25 28  1
 11 14  1
 13 16  1
 19 20  1
 26 27  2
M  END
> <COMPOUND_NAMES>
Example 214 (+/-) (Page No: 450)

> <Reference>
WO2019148005

> <IC50_range_nM>
1001-3000

> <smiles>
CC(Cc1nccn1C)c1cccc(c1)NC(c1ccc(C)c(C2CC2)n1)=O

$$$$
C24H27N5O3
  MOLSOFT 03092310482D

 32 35  0  0  1  0  0  0  0  0999 V2000
    0.0000   -0.0000    0.0000 O   0  0  0
   -1.3052   -0.7290    0.0000 C   0  0  0
   -1.3169   -2.2106    0.0000 N   0  0  0
   -2.6103    0.0235    0.0000 C   0  0  0
   -2.5398   -3.0807    0.0000 C   0  0  0
   -0.1176   -3.0807    0.0000 C   0  0  0
   -2.6221    1.5286    0.0000 C   0  0  0
   -3.9155   -0.7055    0.0000 C   0  0  0
   -2.0930   -4.4917    0.0000 C   0  0  2
   -0.5879   -4.4917    0.0000 C   0  0  0
   -3.9273    2.2811    0.0000 C   0  0  0
   -5.2207    0.0470    0.0000 C   0  0  0
   -2.9866   -5.6910    0.0000 O   0  0  0
   -5.2324    1.5521    0.0000 N   0  0  0
   -3.9390    3.7862    0.0000 C   0  0  0
   -5.2442    4.5505    0.0000 O   0  0  0
   -2.6574    4.5505    0.0000 N   0  0  0
   -2.6691    6.0555    0.0000 C   0  0  0
   -3.9743    6.8081    0.0000 C   0  0  0
   -1.3875    6.8081    0.0000 C   0  0  0
   -3.9861    8.3131    0.0000 C   0  0  0
   -1.3992    8.3131    0.0000 C   0  0  0
   -2.7044    9.0774    0.0000 C   0  0  0
   -5.2912    9.0774    0.0000 C   0  0  1
   -6.5964    8.3366    0.0000 C   0  0  0
   -5.3030   10.5825    0.0000 C   0  0  0
   -7.9016    9.1009    0.0000 C   0  0  0
   -9.2773    8.5013    0.0000 N   0  0  0
   -8.0662   10.5942    0.0000 N   0  0  0
  -10.2885    9.6183    0.0000 C   0  0  0
   -9.5360   10.9117    0.0000 C   0  0  0
   -6.9727   11.6054    0.0000 C   0  0  0
  1  2  2
  2  3  1
  2  4  1
  3  5  1
  3  6  1
  4  7  2
  4  8  1
  9  5  1
  6 10  1
  7 11  1
  8 12  2
  9 13  1  6  0
 11 14  2
 11 15  1
 15 16  2
 15 17  1
 17 18  1
 18 19  2
 18 20  1
 19 21  1
 20 22  2
 21 23  2
 24 21  1
 24 25  1
 24 26  1  1  0
 25 27  1
 27 28  2
 27 29  1
 28 30  1
 29 31  1
 29 32  1
  9 10  1
 12 14  1
 22 23  1
 30 31  2
M  END
> <COMPOUND_NAMES>
Example 252a (Stereo) (Page No: 469)

> <Reference>
WO2019148005

> <IC50_range_nM>
1001-3000

> <smiles>
C[C@H](Cc1nccn1C)c1cccc(c1)NC(c1cc(ccn1)C(N1CC[C@@H](C1)O)=O)=O

$$$$
C24H27N5O3
  MOLSOFT 03092310482D

 32 35  0  0  1  0  0  0  0  0999 V2000
    0.0000   -0.0000    0.0000 O   0  0  0
   -1.3052   -0.7290    0.0000 C   0  0  0
   -1.3169   -2.2106    0.0000 N   0  0  0
   -2.6103    0.0235    0.0000 C   0  0  0
   -2.5398   -3.0807    0.0000 C   0  0  0
   -0.1176   -3.0807    0.0000 C   0  0  0
   -2.6221    1.5286    0.0000 C   0  0  0
   -3.9155   -0.7055    0.0000 C   0  0  0
   -2.0930   -4.4917    0.0000 C   0  0  2
   -0.5879   -4.4917    0.0000 C   0  0  0
   -3.9273    2.2811    0.0000 C   0  0  0
   -5.2207    0.0470    0.0000 C   0  0  0
   -2.9866   -5.6910    0.0000 O   0  0  0
   -5.2324    1.5521    0.0000 N   0  0  0
   -3.9390    3.7862    0.0000 C   0  0  0
   -5.2442    4.5505    0.0000 O   0  0  0
   -2.6574    4.5505    0.0000 N   0  0  0
   -2.6691    6.0555    0.0000 C   0  0  0
   -3.9743    6.8081    0.0000 C   0  0  0
   -1.3875    6.8081    0.0000 C   0  0  0
   -3.9861    8.3131    0.0000 C   0  0  0
   -1.3992    8.3131    0.0000 C   0  0  0
   -2.7044    9.0774    0.0000 C   0  0  0
   -5.2912    9.0774    0.0000 C   0  0  3
   -6.5964    8.3366    0.0000 C   0  0  0
   -5.3030   10.5825    0.0000 C   0  0  0
   -7.9016    9.1009    0.0000 C   0  0  0
   -9.2773    8.5013    0.0000 N   0  0  0
   -8.0662   10.5942    0.0000 N   0  0  0
  -10.2885    9.6183    0.0000 C   0  0  0
   -9.5360   10.9117    0.0000 C   0  0  0
   -6.9727   11.6054    0.0000 C   0  0  0
  1  2  2
  2  3  1
  2  4  1
  3  5  1
  3  6  1
  4  7  2
  4  8  1
  9  5  1
  6 10  1
  7 11  1
  8 12  2
  9 13  1  6  0
 11 14  2
 11 15  1
 15 16  2
 15 17  1
 17 18  1
 18 19  2
 18 20  1
 19 21  1
 20 22  2
 21 23  2
 24 21  1
 24 25  1
 24 26  1
 25 27  1
 27 28  2
 27 29  1
 28 30  1
 29 31  1
 29 32  1
  9 10  1
 12 14  1
 22 23  1
 30 31  2
M  END
> <COMPOUND_NAMES>
Example 252 (S) (Page No: 469)

> <Reference>
WO2019148005

> <IC50_range_nM>
3001-10000

> <smiles>
CC(Cc1nccn1C)c1cccc(c1)NC(c1cc(ccn1)C(N1CC[C@@H](C1)O)=O)=O

$$$$
C25H29N5O3
  MOLSOFT 03092310482D

 33 36  0  0  1  0  0  0  0  0999 V2000
    0.0000   -0.0000    0.0000 O   0  0  0
   -1.3053   -0.7291    0.0000 C   0  0  0
   -1.3170   -2.2107    0.0000 N   0  0  0
   -2.6106    0.0235    0.0000 C   0  0  0
   -2.5400   -3.0809    0.0000 C   0  0  1
   -0.1176   -3.0809    0.0000 C   0  0  0
   -2.6223    1.5287    0.0000 C   0  0  0
   -3.9158   -0.7056    0.0000 C   0  0  0
   -2.0931   -4.4920    0.0000 C   0  0  0
   -3.9746   -2.6106    0.0000 C   0  0  0
   -0.5880   -4.4920    0.0000 C   0  0  2
   -3.9276    2.2813    0.0000 C   0  0  0
   -5.2211    0.0470    0.0000 C   0  0  0
    0.2822   -5.6915    0.0000 O   0  0  0
   -5.2329    1.5522    0.0000 N   0  0  0
   -3.9393    3.7865    0.0000 C   0  0  0
   -5.2446    4.5508    0.0000 O   0  0  0
   -2.6576    4.5508    0.0000 N   0  0  0
   -2.6693    6.0560    0.0000 C   0  0  0
   -3.9746    6.8086    0.0000 C   0  0  0
   -1.3876    6.8086    0.0000 C   0  0  0
   -3.9864    8.3138    0.0000 C   0  0  0
   -1.3993    8.3138    0.0000 C   0  0  0
   -2.7046    9.0781    0.0000 C   0  0  0
   -5.2917    9.0781    0.0000 C   0  0  1
   -6.5969    8.3373    0.0000 C   0  0  0
   -5.3034   10.5833    0.0000 C   0  0  0
   -7.9022    9.1016    0.0000 C   0  0  0
   -9.2780    8.5019    0.0000 N   0  0  0
   -8.0668   10.5951    0.0000 N   0  0  0
  -10.2893    9.6191    0.0000 C   0  0  0
   -9.5367   10.9126    0.0000 C   0  0  0
   -6.9732   11.6064    0.0000 C   0  0  0
  1  2  2
  2  3  1
  2  4  1
  5  3  1
  3  6  1
  4  7  2
  4  8  1
  5  9  1
  5 10  1  1  0
 11  6  1
  7 12  1
  8 13  2
 11 14  1  1  0
 12 15  2
 12 16  1
 16 17  2
 16 18  1
 18 19  1
 19 20  2
 19 21  1
 20 22  1
 21 23  2
 22 24  2
 25 22  1
 25 26  1
 25 27  1  1  0
 26 28  1
 28 29  2
 28 30  1
 29 31  1
 30 32  1
 30 33  1
 11  9  1
 13 15  1
 23 24  1
 31 32  2
M  END
> <COMPOUND_NAMES>
Example 253 (Stereo) (Page No: 469)

> <Reference>
WO2019148005

> <IC50_range_nM>
3001-10000

> <smiles>
C[C@H](Cc1nccn1C)c1cccc(c1)NC(c1cc(ccn1)C(N1C[C@H](C[C@H]1C)O)=O)=O

$$$$
C26H29N7O
  MOLSOFT 03092310482D

 34 38  0  0  1  0  0  0  0  0999 V2000
    0.0000   -0.0000    0.0000 O   0  0  0
    1.2871   -0.7321    0.0000 C   0  0  0
    2.5742    0.0236    0.0000 N   0  0  0
    1.2753   -2.2200    0.0000 C   0  0  0
    2.5624    1.5351    0.0000 C   0  0  0
    2.5624   -2.9639    0.0000 N   0  0  0
   -0.0354   -2.9639    0.0000 C   0  0  0
    1.2517    2.2908    0.0000 C   0  0  0
    3.8495    2.2908    0.0000 C   0  0  0
    2.5506   -4.4517    0.0000 C   0  0  0
   -0.0472   -4.4517    0.0000 C   0  0  0
    1.2399    3.8023    0.0000 C   0  0  0
    3.8377    3.8023    0.0000 C   0  0  0
    1.2399   -5.1839    0.0000 C   0  0  0
   -1.3580   -5.1839    0.0000 C   0  0  0
    2.5270    4.5580    0.0000 C   0  0  0
   -0.0709    4.5580    0.0000 C   0  0  1
    1.2281   -6.6717    0.0000 C   0  0  0
   -1.3698   -6.6717    0.0000 C   0  0  0
   -1.3816    3.8259    0.0000 C   0  0  0
   -0.0827    6.0695    0.0000 C   0  0  0
   -0.0827   -7.4038    0.0000 C   0  0  0
   -2.6805   -7.4038    0.0000 N   0  0  0
   -2.6923    4.5816    0.0000 C   0  0  0
   -2.6923   -8.8917    0.0000 C   0  0  0
   -3.9912   -6.6481    0.0000 C   0  0  0
   -4.0739    3.9794    0.0000 N   0  0  0
   -2.8576    6.0813    0.0000 N   0  0  0
   -4.0030   -9.6238    0.0000 C   0  0  0
   -5.3019   -7.3802    0.0000 C   0  0  0
   -5.0894    5.1012    0.0000 N   0  0  0
   -4.3337    6.4001    0.0000 C   0  0  0
   -1.7594    7.0968    0.0000 C   0  0  0
   -5.3138   -8.8681    0.0000 N   0  0  0
  1  2  2
  2  3  1
  2  4  1
  3  5  1
  4  6  1
  4  7  2
  5  8  2
  5  9  1
  6 10  2
  7 11  1
  8 12  1
  9 13  2
 10 14  1
 11 15  2
 12 16  2
 17 12  1
 14 18  2
 15 19  1
 17 20  1
 17 21  1  1  0
 18 22  1
 19 23  1
 20 24  1
 23 25  1
 23 26  1
 24 27  2
 24 28  1
 25 29  1
 26 30  1
 27 31  1
 28 32  1
 28 33  1
 29 34  1
 11 14  1
 13 16  1
 19 22  2
 30 34  1
 31 32  2
M  END
> <COMPOUND_NAMES>
Example 472 (R) (Page No: 620)

> <Reference>
WO2019148005

> <IC50_range_nM>
<100

> <smiles>
C[C@H](Cc1nncn1C)c1cccc(c1)NC(c1cc2cc(ccc2cn1)N1CCNCC1)=O

$$$$
C27H29N7O2
  MOLSOFT 03092310482D

 36 40  0  0  1  0  0  0  0  0999 V2000
    0.0000   -0.0000    0.0000 O   0  0  0
    1.2870   -0.7320    0.0000 C   0  0  0
    1.2752   -2.2197    0.0000 N   0  0  0
    2.5739    0.0236    0.0000 C   0  0  0
    2.5621   -2.9517    0.0000 C   0  0  0
   -0.0354   -2.9517    0.0000 C   0  0  0
    3.8609   -0.7084    0.0000 N   0  0  0
    3.8491   -2.1961    0.0000 C   0  0  0
    5.1478    0.0472    0.0000 C   0  0  0
    5.1360    1.5585    0.0000 C   0  0  0
    6.4348   -0.6848    0.0000 C   0  0  0
    6.4230    2.3142    0.0000 C   0  0  0
    7.7218    0.0708    0.0000 C   0  0  0
    7.7100    1.5821    0.0000 C   0  0  0
    6.4112    3.8255    0.0000 C   0  0  0
    8.9969    2.3378    0.0000 C   0  0  0
    7.6982    4.5929    0.0000 C   0  0  0
    8.9851    3.8491    0.0000 N   0  0  0
    7.6863    6.1042    0.0000 C   0  0  0
    6.3758    6.8599    0.0000 O   0  0  0
    8.9733    6.8599    0.0000 N   0  0  0
    8.9615    8.3712    0.0000 C   0  0  0
    7.6509    9.1268    0.0000 C   0  0  0
   10.2485    9.1268    0.0000 C   0  0  0
    7.6391   10.6381    0.0000 C   0  0  0
   10.2367   10.6381    0.0000 C   0  0  0
    8.9261   11.3937    0.0000 C   0  0  0
    6.3285   11.3937    0.0000 C   0  0  1
    5.0180   10.6617    0.0000 C   0  0  0
    6.3167   12.9050    0.0000 C   0  0  0
    3.7074   11.4174    0.0000 C   0  0  0
    2.3260   10.8152    0.0000 N   0  0  0
    3.5421   12.9168    0.0000 N   0  0  0
    1.3106   11.9369    0.0000 N   0  0  0
    2.0662   13.2356    0.0000 C   0  0  0
    4.6401   13.9322    0.0000 C   0  0  0
  1  2  2
  2  3  1
  2  4  1
  3  5  1
  3  6  1
  4  7  1
  5  8  1
  7  9  1
  9 10  2
  9 11  1
 10 12  1
 11 13  2
 12 14  1
 12 15  2
 14 16  2
 15 17  1
 16 18  1
 17 19  1
 19 20  2
 19 21  1
 21 22  1
 22 23  2
 22 24  1
 23 25  1
 24 26  2
 25 27  2
 28 25  1
 28 29  1
 28 30  1  1  0
 29 31  1
 31 32  2
 31 33  1
 32 34  1
 33 35  1
 33 36  1
  7  8  1
 13 14  1
 17 18  2
 26 27  1
 34 35  2
M  END
> <COMPOUND_NAMES>
Example 209 (R) (Page No: 447)

> <Reference>
WO2019148005

> <IC50_range_nM>
<100

> <smiles>
C[C@H](Cc1nncn1C)c1cccc(c1)NC(c1cc2cc(ccc2cn1)N1CCN(C)C(C1)=O)=O

$$$$
C27H29N7O2
  MOLSOFT 03092310482D

 36 40  0  0  1  0  0  0  0  0999 V2000
    0.0000   -0.0000    0.0000 O   0  0  0
    1.2870   -0.7320    0.0000 C   0  0  0
    1.2752   -2.2197    0.0000 N   0  0  0
    2.5739    0.0236    0.0000 C   0  0  0
    2.5621   -2.9517    0.0000 C   0  0  0
   -0.0354   -2.9517    0.0000 C   0  0  0
    3.8609   -0.7084    0.0000 N   0  0  0
    3.8491   -2.1961    0.0000 C   0  0  0
    5.1478    0.0472    0.0000 C   0  0  0
    5.1360    1.5585    0.0000 C   0  0  0
    6.4348   -0.6848    0.0000 C   0  0  0
    6.4230    2.3142    0.0000 C   0  0  0
    7.7218    0.0708    0.0000 C   0  0  0
    7.7100    1.5821    0.0000 C   0  0  0
    6.4112    3.8255    0.0000 C   0  0  0
    8.9969    2.3378    0.0000 C   0  0  0
    7.6982    4.5929    0.0000 C   0  0  0
    8.9851    3.8491    0.0000 N   0  0  0
    7.6863    6.1042    0.0000 C   0  0  0
    6.3758    6.8599    0.0000 O   0  0  0
    8.9733    6.8599    0.0000 N   0  0  0
    8.9615    8.3712    0.0000 C   0  0  0
    7.6509    9.1268    0.0000 C   0  0  0
   10.2485    9.1268    0.0000 C   0  0  0
    7.6391   10.6381    0.0000 C   0  0  0
   10.2367   10.6381    0.0000 C   0  0  0
    8.9261   11.3937    0.0000 C   0  0  0
    6.3285   11.3937    0.0000 C   0  0  2
    5.0180   10.6617    0.0000 C   0  0  0
    6.3167   12.9050    0.0000 C   0  0  0
    3.7074   11.4174    0.0000 C   0  0  0
    2.3260   10.8152    0.0000 N   0  0  0
    3.5421   12.9168    0.0000 N   0  0  0
    1.3106   11.9369    0.0000 N   0  0  0
    2.0662   13.2356    0.0000 C   0  0  0
    4.6401   13.9322    0.0000 C   0  0  0
  1  2  2
  2  3  1
  2  4  1
  3  5  1
  3  6  1
  4  7  1
  5  8  1
  7  9  1
  9 10  2
  9 11  1
 10 12  1
 11 13  2
 12 14  1
 12 15  2
 14 16  2
 15 17  1
 16 18  1
 17 19  1
 19 20  2
 19 21  1
 21 22  1
 22 23  2
 22 24  1
 23 25  1
 24 26  2
 25 27  2
 28 25  1
 28 29  1
 28 30  1  6  0
 29 31  1
 31 32  2
 31 33  1
 32 34  1
 33 35  1
 33 36  1
  7  8  1
 13 14  1
 17 18  2
 26 27  1
 34 35  2
M  END
> <COMPOUND_NAMES>
Example 210 (S) (Page No: 448)

> <Reference>
WO2019148005

> <IC50_range_nM>
3001-10000

> <smiles>
C[C@@H](Cc1nncn1C)c1cccc(c1)NC(c1cc2cc(ccc2cn1)N1CCN(C)C(C1)=O)=O

$$$$
C28H31N7O2
  MOLSOFT 03092310482D

 37 41  0  0  1  0  0  0  0  0999 V2000
    0.0000   -0.0000    0.0000 O   0  0  0
    1.2871   -0.7321    0.0000 C   0  0  0
    2.5741    0.0236    0.0000 N   0  0  0
    1.2753   -2.2199    0.0000 C   0  0  0
    2.5623    1.5350    0.0000 C   0  0  0
    2.5623   -2.9638    0.0000 N   0  0  0
   -0.0354   -2.9638    0.0000 C   0  0  0
    1.2516    2.2907    0.0000 C   0  0  0
    3.8494    2.2907    0.0000 C   0  0  0
    2.5505   -4.4516    0.0000 C   0  0  0
   -0.0472   -4.4516    0.0000 C   0  0  0
    1.2398    3.8021    0.0000 C   0  0  0
    3.8376    3.8021    0.0000 C   0  0  0
    1.2398   -5.1837    0.0000 C   0  0  0
   -1.3579   -5.1837    0.0000 C   0  0  0
    2.5269    4.5579    0.0000 C   0  0  0
   -0.0708    4.5579    0.0000 C   0  0  1
    1.2280   -6.6715    0.0000 C   0  0  0
   -1.3697   -6.6715    0.0000 C   0  0  0
   -1.3815    3.8258    0.0000 C   0  0  0
   -0.0827    6.0693    0.0000 C   0  0  0
   -0.0827   -7.4036    0.0000 C   0  0  0
   -2.6804   -7.4036    0.0000 N   0  0  0
   -2.6922    4.5815    0.0000 C   0  0  0
   -2.6922   -8.8914    0.0000 C   0  0  0
   -3.9911   -6.6479    0.0000 C   0  0  0
   -4.0737    3.9793    0.0000 N   0  0  0
   -2.8575    6.0811    0.0000 N   0  0  0
   -4.0029   -9.6234    0.0000 C   0  0  0
   -5.3018   -7.3799    0.0000 C   0  0  0
   -5.0892    5.1010    0.0000 N   0  0  0
   -4.3335    6.3999    0.0000 C   0  0  0
   -1.7594    7.0966    0.0000 C   0  0  0
   -5.3136   -8.8677    0.0000 N   0  0  0
   -6.6242   -9.5998    0.0000 C   0  0  0
   -6.6360  -11.0876    0.0000 O   0  0  0
   -7.9349   -8.8441    0.0000 C   0  0  0
  1  2  2
  2  3  1
  2  4  1
  3  5  1
  4  6  1
  4  7  2
  5  8  2
  5  9  1
  6 10  2
  7 11  1
  8 12  1
  9 13  2
 10 14  1
 11 15  2
 12 16  2
 17 12  1
 14 18  2
 15 19  1
 17 20  1
 17 21  1  1  0
 18 22  1
 19 23  1
 20 24  1
 23 25  1
 23 26  1
 24 27  2
 24 28  1
 25 29  1
 26 30  1
 27 31  1
 28 32  1
 28 33  1
 29 34  1
 34 35  1
 35 36  2
 35 37  1
 11 14  1
 13 16  1
 19 22  2
 30 34  1
 31 32  2
M  END
> <COMPOUND_NAMES>
Example 211 (R) (Page No: 448)

> <Reference>
WO2019148005

> <IC50_range_nM>
<100

> <smiles>
CC(N1CCN(CC1)c1ccc2cnc(cc2c1)C(Nc1cccc(c1)[C@H](C)Cc1nncn1C)=O)=O

$$$$
C22H21N5O
  MOLSOFT 03092310482D

 28 31  0  0  1  0  0  0  0  0999 V2000
    0.0000   -0.0000    0.0000 O   0  0  0
    1.2873   -0.7322    0.0000 C   0  0  0
    2.5745    0.0236    0.0000 N   0  0  0
    1.2755   -2.2202    0.0000 C   0  0  0
    2.5627    1.5353    0.0000 C   0  0  0
    2.5627   -2.9643    0.0000 N   0  0  0
   -0.0354   -2.9643    0.0000 C   0  0  0
    1.2518    2.2911    0.0000 C   0  0  0
    3.8500    2.2911    0.0000 C   0  0  0
    2.5509   -4.4523    0.0000 C   0  0  0
   -0.0472   -4.4523    0.0000 C   0  0  0
    1.2400    3.8028    0.0000 C   0  0  0
    3.8382    3.8028    0.0000 C   0  0  0
    1.2400   -5.1845    0.0000 C   0  0  0
   -1.3581   -5.1845    0.0000 C   0  0  0
    2.5273    4.5586    0.0000 C   0  0  0
   -0.0709    4.5586    0.0000 C   0  0  1
    1.2282   -6.6725    0.0000 C   0  0  0
   -1.3699   -6.6725    0.0000 C   0  0  0
   -1.3817    3.8264    0.0000 C   0  0  0
   -0.0827    6.0702    0.0000 C   0  0  0
   -0.0827   -7.4047    0.0000 C   0  0  0
   -2.6926    4.5822    0.0000 C   0  0  0
   -4.0744    3.9799    0.0000 N   0  0  0
   -2.8580    6.0820    0.0000 N   0  0  0
   -5.0900    5.1018    0.0000 N   0  0  0
   -4.3342    6.4009    0.0000 C   0  0  0
   -1.7597    7.0977    0.0000 C   0  0  0
  1  2  2
  2  3  1
  2  4  1
  3  5  1
  4  6  1
  4  7  2
  5  8  2
  5  9  1
  6 10  2
  7 11  1
  8 12  1
  9 13  2
 10 14  1
 11 15  2
 12 16  2
 17 12  1
 14 18  2
 15 19  1
 17 20  1
 17 21  1  1  0
 18 22  1
 20 23  1
 23 24  2
 23 25  1
 24 26  1
 25 27  1
 25 28  1
 11 14  1
 13 16  1
 19 22  2
 26 27  2
M  END
> <COMPOUND_NAMES>
Example 182 (R) (Page No: 432)

> <Reference>
WO2019148005

> <IC50_range_nM>
301-1000

> <smiles>
C[C@H](Cc1nncn1C)c1cccc(c1)NC(c1cc2ccccc2cn1)=O

$$$$
C17H17F3N6O
  MOLSOFT 03092310482D

 27 29  0  0  1  0  0  0  0  0999 V2000
    0.0000   -0.0000    0.0000 F   0  0  0
    1.1985    0.8930    0.0000 C   0  0  0
    2.0680   -0.3055    0.0000 F   0  0  0
    2.3970    1.7860    0.0000 F   0  0  0
    0.3055    2.1150    0.0000 C   0  0  0
   -1.1985    2.1267    0.0000 N   0  0  0
    0.7520    3.5484    0.0000 C   0  0  0
   -1.6685    3.5602    0.0000 N   0  0  0
   -0.4700    4.4414    0.0000 C   0  0  0
   -0.4817    5.9454    0.0000 C   0  0  0
   -1.7860    6.6974    0.0000 O   0  0  0
    0.7990    6.6974    0.0000 N   0  0  0
    0.7872    8.2013    0.0000 C   0  0  0
   -0.5170    8.9651    0.0000 C   0  0  0
    2.0680    8.9651    0.0000 C   0  0  0
   -0.5287   10.4691    0.0000 C   0  0  0
    2.0562   10.4691    0.0000 C   0  0  0
    0.7520   11.2210    0.0000 C   0  0  0
   -1.8330   11.2210    0.0000 C   0  0  1
   -3.1372   10.4926    0.0000 C   0  0  0
   -1.8447   12.7250    0.0000 C   0  0  0
   -4.4414   11.2445    0.0000 C   0  0  0
   -5.8161   10.6453    0.0000 N   0  0  0
   -4.6059   12.7368    0.0000 N   0  0  0
   -6.8266   11.7615    0.0000 N   0  0  0
   -6.0746   13.0540    0.0000 C   0  0  0
   -3.5132   13.7472    0.0000 C   0  0  0
  1  2  1
  2  3  1
  2  4  1
  2  5  1
  5  6  2
  5  7  1
  6  8  1
  7  9  2
  9 10  1
 10 11  2
 10 12  1
 12 13  1
 13 14  2
 13 15  1
 14 16  1
 15 17  2
 16 18  2
 19 16  1
 19 20  1
 19 21  1  1  0
 20 22  1
 22 23  2
 22 24  1
 23 25  1
 24 26  1
 24 27  1
  8  9  1
 17 18  1
 25 26  2
M  END
> <COMPOUND_NAMES>
Example 314 (R) (Page No: 518)

> <Reference>
WO2019148005

> <IC50_range_nM>
301-1000

> <smiles>
C[C@H](Cc1nncn1C)c1cccc(c1)NC(c1cc(C(F)(F)F)n[nH]1)=O

$$$$
C17H20N6O
  MOLSOFT 03092310482D

 24 26  0  0  1  0  0  0  0  0999 V2000
    0.0000   -0.0000    0.0000 O   0  0  0
    1.2842   -0.7305    0.0000 C   0  0  0
    2.5684    0.0236    0.0000 N   0  0  0
    1.2724   -2.2150    0.0000 C   0  0  0
    2.5567    1.5316    0.0000 C   0  0  0
    2.4742   -3.0868    0.0000 N   0  0  0
    0.0471   -3.0868    0.0000 C   0  0  0
    1.2489    2.2857    0.0000 C   0  0  0
    3.8409    2.2857    0.0000 C   0  0  0
    2.0029   -4.5007    0.0000 N   0  0  0
    0.4948   -4.5007    0.0000 C   0  0  0
    1.2371    3.7938    0.0000 C   0  0  0
    3.8291    3.7938    0.0000 C   0  0  0
    2.8748   -5.7024    0.0000 C   0  0  0
    2.5213    4.5596    0.0000 C   0  0  0
   -0.0707    4.5596    0.0000 C   0  0  1
   -1.3785    3.8173    0.0000 C   0  0  0
   -0.0825    6.0676    0.0000 C   0  0  0
   -2.6863    4.5831    0.0000 C   0  0  0
   -4.0647    3.9823    0.0000 N   0  0  0
   -2.8512    6.0794    0.0000 N   0  0  0
   -5.0780    5.1015    0.0000 N   0  0  0
   -4.3239    6.3975    0.0000 C   0  0  0
   -1.7555    7.0927    0.0000 C   0  0  0
  1  2  2
  2  3  1
  2  4  1
  3  5  1
  4  6  2
  4  7  1
  5  8  2
  5  9  1
  6 10  1
  7 11  2
  8 12  1
  9 13  2
 10 14  1
 12 15  2
 16 12  1
 16 17  1
 16 18  1  1  0
 17 19  1
 19 20  2
 19 21  1
 20 22  1
 21 23  1
 21 24  1
 10 11  1
 13 15  1
 22 23  2
M  END
> <COMPOUND_NAMES>
Example 197 (R) (Page No: 439)

> <Reference>
WO2019148005

> <IC50_range_nM>
1001-3000

> <smiles>
C[C@H](Cc1nncn1C)c1cccc(c1)NC(c1ccn(C)n1)=O

$$$$
C20H21N5O2S
  MOLSOFT 03092310482D

 28 32  0  0  0  0  0  0  0  0999 V2000
    0.0000   -0.0000    0.0000 S   0  0  0
   -1.5035    0.0117    0.0000 C   0  0  0
    0.4464    1.4330    0.0000 C   0  0  0
   -1.9734    1.4448    0.0000 N   0  0  0
   -2.3962   -1.1864    0.0000 C   0  0  0
   -0.7753    2.3258    0.0000 C   0  0  0
   -2.5607   -2.6547    0.0000 C   0  0  0
   -3.7705   -1.7854    0.0000 C   0  0  0
   -0.7870    3.8293    0.0000 C   0  0  0
   -2.0908    4.5810    0.0000 O   0  0  0
    0.4933    4.5810    0.0000 N   0  0  0
    0.4816    6.0846    0.0000 C   0  0  0
   -0.8222    6.8363    0.0000 C   0  0  0
    1.7619    6.8363    0.0000 C   0  0  0
   -0.8340    8.3398    0.0000 C   0  0  0
    1.7502    8.3398    0.0000 C   0  0  0
    0.4464    9.0916    0.0000 C   0  0  0
   -2.1378    9.0916    0.0000 C   0  0  0
   -3.5944    8.7157    0.0000 C   0  0  0
   -2.5372   10.5481    0.0000 C   0  0  0
   -0.8575    9.8434    0.0000 C   0  0  0
   -3.9937   10.1723    0.0000 O   0  0  0
   -0.8692   11.3469    0.0000 C   0  0  0
    0.3289   12.2396    0.0000 N   0  0  0
   -2.0908   12.2396    0.0000 N   0  0  0
   -0.1410   13.6726    0.0000 N   0  0  0
   -1.6445   13.6726    0.0000 C   0  0  0
   -3.5239   11.7932    0.0000 C   0  0  0
  1  2  1
  1  3  1
  2  4  2
  2  5  1
  3  6  2
  5  7  1
  5  8  1
  6  9  1
  9 10  2
  9 11  1
 11 12  1
 12 13  2
 12 14  1
 13 15  1
 14 16  2
 15 17  2
 15 18  1
 18 19  1
 18 20  1
 18 21  1
 19 22  1
 21 23  1
 23 24  2
 23 25  1
 24 26  1
 25 27  1
 25 28  1
  4  6  1
  7  8  1
 16 17  1
 20 22  1
 26 27  2
M  END
> <COMPOUND_NAMES>
Example 494 (Page No: 641)

> <Reference>
WO2019148005

> <IC50_range_nM>
101-300

> <smiles>
Cn1cnnc1CC1(COC1)c1cccc(c1)NC(c1csc(C2CC2)n1)=O

$$$$
C18H16F3N5O2S
  MOLSOFT 03092310482D

 29 32  0  0  0  0  0  0  0  0999 V2000
    0.0000   -0.0000    0.0000 S   0  0  0
   -1.5025    0.0117    0.0000 C   0  0  0
    0.4461    1.4321    0.0000 C   0  0  0
   -1.9720    1.4438    0.0000 N   0  0  0
   -2.3946   -1.1856    0.0000 C   0  0  0
   -0.7747    2.3242    0.0000 C   0  0  0
   -3.6154   -0.2935    0.0000 F   0  0  0
   -3.2867   -2.3829    0.0000 F   0  0  0
   -1.1973   -2.0542    0.0000 F   0  0  0
   -0.7865    3.8267    0.0000 C   0  0  0
   -2.0894    4.5779    0.0000 O   0  0  0
    0.4930    4.5779    0.0000 N   0  0  0
    0.4813    6.0804    0.0000 C   0  0  0
   -0.8217    6.8434    0.0000 C   0  0  0
    1.7607    6.8434    0.0000 C   0  0  0
   -0.8334    8.3459    0.0000 C   0  0  0
    1.7490    8.3459    0.0000 C   0  0  0
    0.4461    9.0971    0.0000 C   0  0  0
   -2.1364    9.0971    0.0000 C   0  0  0
   -3.5919    8.7215    0.0000 C   0  0  0
   -2.5355   10.5527    0.0000 C   0  0  0
   -0.8569    9.8484    0.0000 C   0  0  0
   -3.9910   10.1770    0.0000 O   0  0  0
   -0.8686   11.3509    0.0000 C   0  0  0
    0.3287   12.2430    0.0000 N   0  0  0
   -2.0894   12.2430    0.0000 N   0  0  0
   -0.1409   13.6750    0.0000 N   0  0  0
   -1.6434   13.6750    0.0000 C   0  0  0
   -3.5215   11.7969    0.0000 C   0  0  0
  1  2  1
  1  3  1
  2  4  2
  2  5  1
  3  6  2
  5  7  1
  5  8  1
  5  9  1
  6 10  1
 10 11  2
 10 12  1
 12 13  1
 13 14  2
 13 15  1
 14 16  1
 15 17  2
 16 18  2
 16 19  1
 19 20  1
 19 21  1
 19 22  1
 20 23  1
 22 24  1
 24 25  2
 24 26  1
 25 27  1
 26 28  1
 26 29  1
  4  6  1
 17 18  1
 21 23  1
 27 28  2
M  END
> <COMPOUND_NAMES>
Example 492 (Page No: 640)

> <Reference>
WO2019148005

> <IC50_range_nM>
<100

> <smiles>
Cn1cnnc1CC1(COC1)c1cccc(c1)NC(c1csc(C(F)(F)F)n1)=O

$$$$
C20H21N5O2S
  MOLSOFT 03092310482D

 28 32  0  0  0  0  0  0  0  0999 V2000
    0.0000   -0.0000    0.0000 S   0  0  0
    1.2011    0.8950    0.0000 C   0  0  0
    0.4475   -1.4131    0.0000 C   0  0  0
    2.4023    0.0236    0.0000 N   0  0  0
    1.1894    2.4023    0.0000 C   0  0  0
    1.9312   -1.4013    0.0000 C   0  0  0
   -0.1178    3.1559    0.0000 O   0  0  0
    2.4729    3.1559    0.0000 N   0  0  0
    2.8027   -2.6025    0.0000 C   0  0  0
    2.4612    4.6632    0.0000 C   0  0  0
    4.1569   -3.2030    0.0000 C   0  0  0
    2.9440   -4.0745    0.0000 C   0  0  0
    1.1540    5.4169    0.0000 C   0  0  0
    3.7447    5.4169    0.0000 C   0  0  0
    1.1423    6.9242    0.0000 C   0  0  0
    3.7330    6.9242    0.0000 C   0  0  0
    2.4258    7.6779    0.0000 C   0  0  0
   -0.1649    7.6779    0.0000 C   0  0  0
   -1.6251    7.3010    0.0000 C   0  0  0
   -0.5652    9.1381    0.0000 C   0  0  0
    1.1187    8.4315    0.0000 C   0  0  0
   -2.0255    8.7613    0.0000 O   0  0  0
    1.1069    9.9388    0.0000 C   0  0  0
    2.3081   10.8338    0.0000 N   0  0  0
   -0.1178   10.8338    0.0000 N   0  0  0
    1.8370   12.2705    0.0000 N   0  0  0
    0.3297   12.2705    0.0000 C   0  0  0
   -1.5544   10.3863    0.0000 C   0  0  0
  1  2  1
  1  3  1
  2  4  2
  2  5  1
  3  6  2
  5  7  2
  5  8  1
  6  9  1
  8 10  1
  9 11  1
  9 12  1
 10 13  2
 10 14  1
 13 15  1
 14 16  2
 15 17  2
 15 18  1
 18 19  1
 18 20  1
 18 21  1
 19 22  1
 21 23  1
 23 24  2
 23 25  1
 24 26  1
 25 27  1
 25 28  1
  4  6  1
 11 12  1
 16 17  1
 20 22  1
 26 27  2
M  END
> <COMPOUND_NAMES>
Example 493 (Page No: 641)

> <Reference>
WO2019148005

> <IC50_range_nM>
301-1000

> <smiles>
Cn1cnnc1CC1(COC1)c1cccc(c1)NC(c1nc(cs1)C1CC1)=O

$$$$
C18H16F3N5O2S
  MOLSOFT 03092310482D

 29 32  0  0  0  0  0  0  0  0999 V2000
    0.0000   -0.0000    0.0000 S   0  0  0
    1.2001    0.8942    0.0000 C   0  0  0
    0.4471   -1.4118    0.0000 C   0  0  0
    2.4001    0.0235    0.0000 N   0  0  0
    1.1883    2.4001    0.0000 C   0  0  0
    1.9295   -1.4001    0.0000 C   0  0  0
   -0.1177    3.1531    0.0000 O   0  0  0
    2.4707    3.1531    0.0000 N   0  0  0
    2.8001   -2.6001    0.0000 C   0  0  0
    2.4589    4.6591    0.0000 C   0  0  0
    1.5765   -3.4708    0.0000 F   0  0  0
    3.6708   -3.8002    0.0000 F   0  0  0
    4.0002   -1.7060    0.0000 F   0  0  0
    1.1530    5.4238    0.0000 C   0  0  0
    3.7414    5.4238    0.0000 C   0  0  0
    1.1412    6.9298    0.0000 C   0  0  0
    3.7296    6.9298    0.0000 C   0  0  0
    2.4237    7.6827    0.0000 C   0  0  0
   -0.1647    7.6827    0.0000 C   0  0  0
   -1.6236    7.3063    0.0000 C   0  0  0
   -0.5647    9.1416    0.0000 C   0  0  0
    1.1177    8.4357    0.0000 C   0  0  0
   -2.0236    8.7651    0.0000 O   0  0  0
    1.1059    9.9417    0.0000 C   0  0  0
    2.3060   10.8358    0.0000 N   0  0  0
   -0.1177   10.8358    0.0000 N   0  0  0
    1.8354   12.2712    0.0000 N   0  0  0
    0.3294   12.2712    0.0000 C   0  0  0
   -1.5530   10.3888    0.0000 C   0  0  0
  1  2  1
  1  3  1
  2  4  2
  2  5  1
  3  6  2
  5  7  2
  5  8  1
  6  9  1
  8 10  1
  9 11  1
  9 12  1
  9 13  1
 10 14  2
 10 15  1
 14 16  1
 15 17  2
 16 18  2
 16 19  1
 19 20  1
 19 21  1
 19 22  1
 20 23  1
 22 24  1
 24 25  2
 24 26  1
 25 27  1
 26 28  1
 26 29  1
  4  6  1
 17 18  1
 21 23  1
 27 28  2
M  END
> <COMPOUND_NAMES>
Example 495 (Page No: 641)

> <Reference>
WO2019148005

> <IC50_range_nM>
301-1000

> <smiles>
Cn1cnnc1CC1(COC1)c1cccc(c1)NC(c1nc(cs1)C(F)(F)F)=O

$$$$
C17H16F3N5O2
  MOLSOFT 03092310482D

 27 29  0  0  1  0  0  0  0  0999 V2000
    0.0000   -0.0000    0.0000 F   0  0  0
    1.2004   -0.8709    0.0000 C   0  0  0
    0.3060   -2.0713    0.0000 F   0  0  0
    2.4008   -1.7418    0.0000 F   0  0  0
    2.0713    0.3531    0.0000 C   0  0  0
    3.5542    0.3648    0.0000 O   0  0  0
    1.6005    1.7888    0.0000 N   0  0  0
    4.0014    1.8006    0.0000 C   0  0  0
    2.8010    2.6833    0.0000 C   0  0  0
    2.7892    4.1897    0.0000 C   0  0  0
    1.4829    4.9429    0.0000 O   0  0  0
    4.0720    4.9429    0.0000 N   0  0  0
    4.0602    6.4493    0.0000 C   0  0  0
    2.7539    7.2142    0.0000 C   0  0  0
    5.3430    7.2142    0.0000 C   0  0  0
    2.7421    8.7206    0.0000 C   0  0  0
    5.3312    8.7206    0.0000 C   0  0  0
    4.0249    9.4738    0.0000 C   0  0  0
    1.4358    9.4738    0.0000 C   0  0  1
    0.1295    8.7442    0.0000 C   0  0  0
    1.4240   10.9802    0.0000 C   0  0  0
   -1.1769    9.4974    0.0000 C   0  0  0
   -2.5538    8.8972    0.0000 N   0  0  0
   -1.3416   10.9920    0.0000 N   0  0  0
   -3.5659   10.0152    0.0000 N   0  0  0
   -2.8127   11.3098    0.0000 C   0  0  0
   -0.2471   12.0041    0.0000 C   0  0  0
  1  2  1
  2  3  1
  2  4  1
  2  5  1
  5  6  1
  5  7  2
  6  8  1
  7  9  1
  9 10  1
 10 11  2
 10 12  1
 12 13  1
 13 14  2
 13 15  1
 14 16  1
 15 17  2
 16 18  2
 19 16  1
 19 20  1
 19 21  1  1  0
 20 22  1
 22 23  2
 22 24  1
 23 25  1
 24 26  1
 24 27  1
  8  9  2
 17 18  1
 25 26  2
M  END
> <COMPOUND_NAMES>
Example 315 (R) (Page No: 518)

> <Reference>
WO2019148005

> <IC50_range_nM>
301-1000

> <smiles>
C[C@H](Cc1nncn1C)c1cccc(c1)NC(c1coc(C(F)(F)F)n1)=O

$$$$
C20H20N6O
  MOLSOFT 03092310482D

 27 30  0  0  1  0  0  0  0  0999 V2000
    0.0000   -0.0000    0.0000 O   0  0  0
    1.2876   -0.7442    0.0000 C   0  0  0
    2.5752    0.0118    0.0000 N   0  0  0
    1.2758   -2.2326    0.0000 C   0  0  0
    2.5634    1.5238    0.0000 C   0  0  0
   -0.0354   -2.9650    0.0000 N   0  0  0
    2.5634   -2.9650    0.0000 C   0  0  0
    1.2521    2.2799    0.0000 C   0  0  0
    3.8509    2.2799    0.0000 C   0  0  0
   -0.0473   -4.4534    0.0000 C   0  0  0
    2.5515   -4.4534    0.0000 C   0  0  0
    1.2403    3.7919    0.0000 C   0  0  0
    3.8391    3.7919    0.0000 C   0  0  0
    1.2403   -5.1858    0.0000 N   0  0  0
    3.6501   -5.4457    0.0000 C   0  0  0
    2.5279    4.5479    0.0000 C   0  0  0
   -0.0709    4.5479    0.0000 C   0  0  1
    1.5357   -6.6387    0.0000 C   0  0  0
    3.0241   -6.8041    0.0000 C   0  0  0
   -1.3821    3.8155    0.0000 C   0  0  0
   -0.0827    6.0599    0.0000 C   0  0  0
   -2.6933    4.5715    0.0000 C   0  0  0
   -4.0754    3.9691    0.0000 N   0  0  0
   -2.8587    6.0717    0.0000 N   0  0  0
   -5.0913    5.0913    0.0000 N   0  0  0
   -4.3353    6.3907    0.0000 C   0  0  0
   -1.7601    7.0876    0.0000 C   0  0  0
  1  2  2
  2  3  1
  2  4  1
  3  5  1
  4  6  1
  4  7  2
  5  8  2
  5  9  1
  6 10  2
  7 11  1
  8 12  1
  9 13  2
 10 14  1
 11 15  2
 12 16  2
 17 12  1
 14 18  1
 15 19  1
 17 20  1
 17 21  1  1  0
 20 22  1
 22 23  2
 22 24  1
 23 25  1
 24 26  1
 24 27  1
 11 14  1
 13 16  1
 18 19  2
 25 26  2
M  END
> <COMPOUND_NAMES>
Example 317 (R) (Page No: 519)

> <Reference>
WO2019148005

> <IC50_range_nM>
301-1000

> <smiles>
C[C@H](Cc1nncn1C)c1cccc(c1)NC(c1cc2cccn2cn1)=O

$$$$
C19H19N7O
  MOLSOFT 03092310482D

 27 30  0  0  1  0  0  0  0  0999 V2000
    0.0000   -0.0000    0.0000 O   0  0  0
    1.2855   -0.7312    0.0000 C   0  0  0
    2.5710    0.0236    0.0000 N   0  0  0
    1.2737   -2.2172    0.0000 C   0  0  0
    2.5592    1.5331    0.0000 C   0  0  0
   -0.0354   -2.9601    0.0000 N   0  0  0
    2.5592   -2.9601    0.0000 C   0  0  0
    1.2501    2.2879    0.0000 C   0  0  0
    3.8446    2.2879    0.0000 C   0  0  0
   -1.4742   -2.4884    0.0000 N   0  0  0
   -0.0472   -4.4461    0.0000 C   0  0  0
    2.5474   -4.4461    0.0000 C   0  0  0
    1.2383    3.7975    0.0000 C   0  0  0
    3.8329    3.7975    0.0000 C   0  0  0
   -2.3705   -3.6913    0.0000 C   0  0  0
    1.2383   -5.1773    0.0000 N   0  0  0
   -1.4860   -4.8943    0.0000 C   0  0  0
    2.5238    4.5523    0.0000 C   0  0  0
   -0.0708    4.5523    0.0000 C   0  0  1
   -1.3798    3.8211    0.0000 C   0  0  0
   -0.0826    6.0618    0.0000 C   0  0  0
   -2.6889    4.5758    0.0000 C   0  0  0
   -4.0687    3.9744    0.0000 N   0  0  0
   -2.8540    6.0736    0.0000 N   0  0  0
   -5.0830    5.0947    0.0000 N   0  0  0
   -4.3282    6.3920    0.0000 C   0  0  0
   -1.7572    7.0878    0.0000 C   0  0  0
  1  2  2
  2  3  1
  2  4  1
  3  5  1
  4  6  1
  4  7  2
  5  8  2
  5  9  1
  6 10  1
  6 11  1
  7 12  1
  8 13  1
  9 14  2
 10 15  2
 11 16  1
 11 17  2
 13 18  2
 19 13  1
 19 20  1
 19 21  1  1  0
 20 22  1
 22 23  2
 22 24  1
 23 25  1
 24 26  1
 24 27  1
 12 16  2
 14 18  1
 15 17  1
 25 26  2
M  END
> <COMPOUND_NAMES>
Example 328 (R) (Page No: 525)

> <Reference>
WO2019148005

> <IC50_range_nM>
<100

> <smiles>
C[C@H](Cc1nncn1C)c1cccc(c1)NC(c1ccnc2ccnn12)=O

$$$$
C20H21N7O
  MOLSOFT 03092310482D

 28 31  0  0  1  0  0  0  0  0999 V2000
    0.0000   -0.0000    0.0000 O   0  0  0
    1.2875   -0.7442    0.0000 C   0  0  0
    2.5751    0.0118    0.0000 N   0  0  0
    1.2757   -2.2325    0.0000 C   0  0  0
    2.5633    1.5238    0.0000 C   0  0  0
    2.5633   -2.9649    0.0000 N   0  0  0
   -0.0354   -2.9649    0.0000 C   0  0  0
    1.2521    2.2798    0.0000 C   0  0  0
    3.8508    2.2798    0.0000 C   0  0  0
    2.5514   -4.4532    0.0000 C   0  0  0
   -0.0472   -4.4532    0.0000 C   0  0  0
    1.2403    3.7917    0.0000 C   0  0  0
    3.8390    3.7917    0.0000 C   0  0  0
    1.2403   -5.1856    0.0000 N   0  0  0
    3.6500   -5.4454    0.0000 C   0  0  0
   -1.3584   -5.1856    0.0000 C   0  0  0
    2.5278    4.5477    0.0000 C   0  0  0
   -0.0709    4.5477    0.0000 C   0  0  1
    1.5356   -6.6385    0.0000 N   0  0  0
    3.0239   -6.8038    0.0000 C   0  0  0
   -1.3820    3.8153    0.0000 C   0  0  0
   -0.0827    6.0597    0.0000 C   0  0  0
   -2.6932    4.5713    0.0000 C   0  0  0
   -4.0752    3.9689    0.0000 N   0  0  0
   -2.8586    6.0715    0.0000 N   0  0  0
   -5.0911    5.0911    0.0000 N   0  0  0
   -4.3351    6.3904    0.0000 C   0  0  0
   -1.7600    7.0873    0.0000 C   0  0  0
  1  2  2
  2  3  1
  2  4  1
  3  5  1
  4  6  2
  4  7  1
  5  8  2
  5  9  1
  6 10  1
  7 11  2
  8 12  1
  9 13  2
 10 14  1
 10 15  2
 11 16  1
 12 17  2
 18 12  1
 14 19  1
 15 20  1
 18 21  1
 18 22  1  1  0
 21 23  1
 23 24  2
 23 25  1
 24 26  1
 25 27  1
 25 28  1
 11 14  1
 13 17  1
 19 20  2
 26 27  2
M  END
> <COMPOUND_NAMES>
Example 329 (R) (Page No: 526)

> <Reference>
WO2019148005

> <IC50_range_nM>
101-300

> <smiles>
Cc1cc(C(Nc2cccc(c2)[C@H](C)Cc2nncn2C)=O)nc2ccnn12

$$$$
C19H19N7O
  MOLSOFT 03092310482D

 27 30  0  0  1  0  0  0  0  0999 V2000
    0.0000   -0.0000    0.0000 O   0  0  0
    1.2876   -0.7442    0.0000 C   0  0  0
    2.5752    0.0118    0.0000 N   0  0  0
    1.2758   -2.2326    0.0000 C   0  0  0
    2.5634    1.5238    0.0000 C   0  0  0
    2.5634   -2.9650    0.0000 N   0  0  0
   -0.0354   -2.9650    0.0000 C   0  0  0
    1.2521    2.2799    0.0000 C   0  0  0
    3.8509    2.2799    0.0000 C   0  0  0
    2.5515   -4.4534    0.0000 C   0  0  0
   -0.0473   -4.4534    0.0000 C   0  0  0
    1.2403    3.7919    0.0000 C   0  0  0
    3.8391    3.7919    0.0000 C   0  0  0
    1.2403   -5.1858    0.0000 N   0  0  0
    3.6501   -5.4457    0.0000 C   0  0  0
    2.5279    4.5479    0.0000 C   0  0  0
   -0.0709    4.5479    0.0000 C   0  0  1
    1.5357   -6.6387    0.0000 N   0  0  0
    3.0241   -6.8041    0.0000 C   0  0  0
   -1.3821    3.8155    0.0000 C   0  0  0
   -0.0827    6.0599    0.0000 C   0  0  0
   -2.6933    4.5715    0.0000 C   0  0  0
   -4.0754    3.9691    0.0000 N   0  0  0
   -2.8587    6.0717    0.0000 N   0  0  0
   -5.0913    5.0913    0.0000 N   0  0  0
   -4.3353    6.3907    0.0000 C   0  0  0
   -1.7601    7.0876    0.0000 C   0  0  0
  1  2  2
  2  3  1
  2  4  1
  3  5  1
  4  6  2
  4  7  1
  5  8  2
  5  9  1
  6 10  1
  7 11  2
  8 12  1
  9 13  2
 10 14  1
 10 15  2
 12 16  2
 17 12  1
 14 18  1
 15 19  1
 17 20  1
 17 21  1  1  0
 20 22  1
 22 23  2
 22 24  1
 23 25  1
 24 26  1
 24 27  1
 11 14  1
 13 16  1
 18 19  2
 25 26  2
M  END
> <COMPOUND_NAMES>
Example 316 (R) (Page No: 518)

> <Reference>
WO2019148005

> <IC50_range_nM>
301-1000

> <smiles>
C[C@H](Cc1nncn1C)c1cccc(c1)NC(c1ccn2c(ccn2)n1)=O

$$$$
C20H19N7O2
  MOLSOFT 03092310482D

 29 33  0  0  0  0  0  0  0  0999 V2000
    0.0000   -0.0000    0.0000 O   0  0  0
    1.2841   -0.7304    0.0000 C   0  0  0
    2.5682    0.0236    0.0000 N   0  0  0
    1.2723   -2.2148    0.0000 C   0  0  0
    2.5565    1.5315    0.0000 C   0  0  0
   -0.0353   -2.9452    0.0000 N   0  0  0
    2.5565   -2.9452    0.0000 C   0  0  0
    1.2488    2.2855    0.0000 C   0  0  0
    3.8406    2.2855    0.0000 C   0  0  0
   -1.4726   -2.4740    0.0000 N   0  0  0
   -0.0471   -4.4296    0.0000 C   0  0  0
    2.5447   -4.4296    0.0000 C   0  0  0
    1.2370    3.7935    0.0000 C   0  0  0
    3.8288    3.7935    0.0000 C   0  0  0
   -2.3680   -3.6756    0.0000 C   0  0  0
    1.2370   -5.1600    0.0000 N   0  0  0
   -1.4844   -4.8773    0.0000 C   0  0  0
    2.5211    4.5474    0.0000 C   0  0  0
   -0.0707    4.5474    0.0000 C   0  0  0
   -1.5315    4.1704    0.0000 C   0  0  0
   -0.4712    6.0083    0.0000 C   0  0  0
    1.2134    5.3014    0.0000 C   0  0  0
   -1.9321    5.6313    0.0000 O   0  0  0
    1.2017    6.8094    0.0000 C   0  0  0
    2.4033    7.7047    0.0000 N   0  0  0
   -0.0236    7.7047    0.0000 N   0  0  0
    1.9321    9.1420    0.0000 N   0  0  0
    0.4241    9.1420    0.0000 C   0  0  0
   -1.4608    7.2570    0.0000 C   0  0  0
  1  2  2
  2  3  1
  2  4  1
  3  5  1
  4  6  1
  4  7  2
  5  8  2
  5  9  1
  6 10  1
  6 11  1
  7 12  1
  8 13  1
  9 14  2
 10 15  2
 11 16  1
 11 17  2
 13 18  2
 13 19  1
 19 20  1
 19 21  1
 19 22  1
 20 23  1
 22 24  1
 24 25  2
 24 26  1
 25 27  1
 26 28  1
 26 29  1
 12 16  2
 14 18  1
 15 17  1
 21 23  1
 27 28  2
M  END
> <COMPOUND_NAMES>
Example 605 (Page No: 718)

> <Reference>
WO2019148005

> <IC50_range_nM>
101-300

> <smiles>
Cn1cnnc1CC1(COC1)c1cccc(c1)NC(c1ccnc2ccnn12)=O

$$$$
C21H21N7O2
  MOLSOFT 03092310482D

 30 34  0  0  0  0  0  0  0  0999 V2000
    0.0000   -0.0000    0.0000 O   0  0  0
    1.2847   -0.7307    0.0000 C   0  0  0
    2.5694    0.0236    0.0000 N   0  0  0
    1.2729   -2.2158    0.0000 C   0  0  0
    2.5576    1.5322    0.0000 C   0  0  0
   -0.0354   -2.9465    0.0000 N   0  0  0
    2.5576   -2.9465    0.0000 C   0  0  0
    1.2493    2.2865    0.0000 C   0  0  0
    3.8423    2.2865    0.0000 C   0  0  0
   -1.4733   -2.4751    0.0000 N   0  0  0
   -0.0471   -4.4316    0.0000 C   0  0  0
    2.5458   -4.4316    0.0000 C   0  0  0
    1.2375    3.7951    0.0000 C   0  0  0
    3.8305    3.7951    0.0000 C   0  0  0
   -2.3690   -3.6773    0.0000 C   0  0  0
    1.2375   -5.1623    0.0000 N   0  0  0
   -1.4851   -4.8795    0.0000 C   0  0  0
    3.8305   -5.1623    0.0000 C   0  0  0
    2.5222    4.5495    0.0000 C   0  0  0
   -0.0707    4.5495    0.0000 C   0  0  0
   -1.5322    4.1723    0.0000 C   0  0  0
   -0.4714    6.0109    0.0000 C   0  0  0
    1.2140    5.3038    0.0000 C   0  0  0
   -1.9329    5.6338    0.0000 O   0  0  0
    1.2022    6.8124    0.0000 C   0  0  0
    2.4044    7.7081    0.0000 N   0  0  0
   -0.0236    7.7081    0.0000 N   0  0  0
    1.9329    9.1460    0.0000 N   0  0  0
    0.4243    9.1460    0.0000 C   0  0  0
   -1.4615    7.2603    0.0000 C   0  0  0
  1  2  2
  2  3  1
  2  4  1
  3  5  1
  4  6  1
  4  7  2
  5  8  2
  5  9  1
  6 10  1
  6 11  1
  7 12  1
  8 13  1
  9 14  2
 10 15  2
 11 16  1
 11 17  2
 12 18  1
 13 19  2
 13 20  1
 20 21  1
 20 22  1
 20 23  1
 21 24  1
 23 25  1
 25 26  2
 25 27  1
 26 28  1
 27 29  1
 27 30  1
 12 16  2
 14 19  1
 15 17  1
 22 24  1
 28 29  2
M  END
> <COMPOUND_NAMES>
Example 596 (Page No: 715)

> <Reference>
WO2019148005

> <IC50_range_nM>
101-300

> <smiles>
Cc1cc(C(Nc2cccc(c2)C2(Cc3nncn3C)COC2)=O)n2c(ccn2)n1

$$$$
C22H23N7O2
  MOLSOFT 03092310482D

 31 35  0  0  0  0  0  0  0  0999 V2000
    0.0000   -0.0000    0.0000 O   0  0  0
    1.2845   -0.7306    0.0000 C   0  0  0
    2.5690    0.0236    0.0000 N   0  0  0
    1.2727   -2.2154    0.0000 C   0  0  0
    2.5572    1.5319    0.0000 C   0  0  0
   -0.0354   -2.9460    0.0000 N   0  0  0
    2.5572   -2.9460    0.0000 C   0  0  0
    1.2491    2.2861    0.0000 C   0  0  0
    3.8416    2.2861    0.0000 C   0  0  0
   -1.4730   -2.4747    0.0000 N   0  0  0
   -0.0471   -4.4309    0.0000 C   0  0  0
    2.5454   -4.4309    0.0000 C   0  0  0
    1.2373    3.7945    0.0000 C   0  0  0
    3.8299    3.7945    0.0000 C   0  0  0
   -2.3686   -3.6767    0.0000 C   0  0  0
    1.2373   -5.1615    0.0000 N   0  0  0
   -1.4848   -4.8787    0.0000 C   0  0  0
    3.8299   -5.1615    0.0000 C   0  0  0
    2.5218    4.5487    0.0000 C   0  0  0
   -0.0707    4.5487    0.0000 C   0  0  0
   -3.8770   -3.6649    0.0000 C   0  0  0
   -1.5319    4.1716    0.0000 C   0  0  0
   -0.4714    6.0099    0.0000 C   0  0  0
    1.2138    5.3029    0.0000 C   0  0  0
   -1.9326    5.6328    0.0000 O   0  0  0
    1.2020    6.8113    0.0000 C   0  0  0
    2.4040    7.7069    0.0000 N   0  0  0
   -0.0236    7.7069    0.0000 N   0  0  0
    1.9326    9.1445    0.0000 N   0  0  0
    0.4242    9.1445    0.0000 C   0  0  0
   -1.4612    7.2591    0.0000 C   0  0  0
  1  2  2
  2  3  1
  2  4  1
  3  5  1
  4  6  1
  4  7  2
  5  8  2
  5  9  1
  6 10  1
  6 11  1
  7 12  1
  8 13  1
  9 14  2
 10 15  2
 11 16  1
 11 17  2
 12 18  1
 13 19  2
 13 20  1
 15 21  1
 20 22  1
 20 23  1
 20 24  1
 22 25  1
 24 26  1
 26 27  2
 26 28  1
 27 29  1
 28 30  1
 28 31  1
 12 16  2
 14 19  1
 15 17  1
 23 25  1
 29 30  2
M  END
> <COMPOUND_NAMES>
Example 597 (Page No: 715)

> <Reference>
WO2019148005

> <IC50_range_nM>
101-300

> <smiles>
Cc1cc(C(Nc2cccc(c2)C2(Cc3nncn3C)COC2)=O)n2c(cc(C)n2)n1

$$$$
C22H23N7O2
  MOLSOFT 03092310482D

 31 35  0  0  0  0  0  0  0  0999 V2000
    0.0000   -0.0000    0.0000 O   0  0  0
    1.2848   -0.7426    0.0000 C   0  0  0
    2.5695    0.0118    0.0000 N   0  0  0
    1.2730   -2.2277    0.0000 C   0  0  0
    2.5578    1.5205    0.0000 C   0  0  0
   -0.0354   -2.9585    0.0000 N   0  0  0
    2.5578   -2.9585    0.0000 C   0  0  0
    1.2494    2.2749    0.0000 C   0  0  0
    3.8425    2.2749    0.0000 C   0  0  0
   -1.4734   -2.4870    0.0000 N   0  0  0
   -0.0471   -4.4437    0.0000 C   0  0  0
    2.5460   -4.4437    0.0000 C   0  0  0
    1.2376    3.7836    0.0000 C   0  0  0
    3.8307    3.7836    0.0000 C   0  0  0
   -2.3692   -3.6893    0.0000 C   0  0  0
    1.2376   -5.1744    0.0000 N   0  0  0
   -1.4851   -4.8916    0.0000 C   0  0  0
    3.8307   -5.1744    0.0000 C   0  0  0
    2.5224    4.5380    0.0000 C   0  0  0
   -0.0707    4.5380    0.0000 C   0  0  0
   -1.9566   -6.3060    0.0000 C   0  0  0
   -1.5323    4.1608    0.0000 C   0  0  0
   -0.4715    5.9995    0.0000 C   0  0  0
    1.2140    5.2923    0.0000 C   0  0  0
   -1.9330    5.6223    0.0000 O   0  0  0
    1.2023    6.8010    0.0000 C   0  0  0
    2.4045    7.6968    0.0000 N   0  0  0
   -0.0236    7.6968    0.0000 N   0  0  0
    1.9330    9.1348    0.0000 N   0  0  0
    0.4243    9.1348    0.0000 C   0  0  0
   -1.4616    7.2489    0.0000 C   0  0  0
  1  2  2
  2  3  1
  2  4  1
  3  5  1
  4  6  1
  4  7  2
  5  8  2
  5  9  1
  6 10  1
  6 11  1
  7 12  1
  8 13  1
  9 14  2
 10 15  2
 11 16  1
 11 17  2
 12 18  1
 13 19  2
 13 20  1
 17 21  1
 20 22  1
 20 23  1
 20 24  1
 22 25  1
 24 26  1
 26 27  2
 26 28  1
 27 29  1
 28 30  1
 28 31  1
 12 16  2
 14 19  1
 15 17  1
 23 25  1
 29 30  2
M  END
> <COMPOUND_NAMES>
Example 606 (Page No: 719)

> <Reference>
WO2019148005

> <IC50_range_nM>
<100

> <smiles>
Cc1cnn2c(cc(C)nc12)C(Nc1cccc(c1)C1(Cc2nncn2C)COC1)=O

$$$$
C23H23N7O2
  MOLSOFT 03092310482D

 32 37  0  0  0  0  0  0  0  0999 V2000
    0.0000   -0.0000    0.0000 O   0  0  0
    1.2851   -0.7310    0.0000 C   0  0  0
    2.5703    0.0236    0.0000 N   0  0  0
    1.2733   -2.2166    0.0000 C   0  0  0
    2.5585    1.5327    0.0000 C   0  0  0
   -0.0354   -2.9594    0.0000 N   0  0  0
    2.5585   -2.9594    0.0000 C   0  0  0
    1.2498    2.2873    0.0000 C   0  0  0
    3.8436    2.2873    0.0000 C   0  0  0
   -1.4738   -2.4877    0.0000 N   0  0  0
   -0.0472   -4.4449    0.0000 C   0  0  0
    2.5467   -4.4449    0.0000 C   0  0  0
    1.2380    3.7965    0.0000 C   0  0  0
    3.8318    3.7965    0.0000 C   0  0  0
   -2.3698   -3.6903    0.0000 C   0  0  0
    1.2380   -5.1759    0.0000 N   0  0  0
   -1.4856   -4.8930    0.0000 C   0  0  0
    3.8318   -5.1759    0.0000 C   0  0  0
    2.5231    4.5510    0.0000 C   0  0  0
   -0.0707    4.5510    0.0000 C   0  0  0
    5.3174   -5.1641    0.0000 C   0  0  0
    4.5628   -6.4611    0.0000 C   0  0  0
   -1.5327    4.1737    0.0000 C   0  0  0
   -0.4716    6.0130    0.0000 C   0  0  0
    1.2144    5.3174    0.0000 C   0  0  0
   -1.9336    5.6357    0.0000 O   0  0  0
    1.2026    6.8266    0.0000 C   0  0  0
    2.4052    7.7226    0.0000 N   0  0  0
   -0.0236    7.7226    0.0000 N   0  0  0
    1.9336    9.1610    0.0000 N   0  0  0
    0.4244    9.1610    0.0000 C   0  0  0
   -1.4620    7.2746    0.0000 C   0  0  0
  1  2  2
  2  3  1
  2  4  1
  3  5  1
  4  6  1
  4  7  2
  5  8  2
  5  9  1
  6 10  1
  6 11  1
  7 12  1
  8 13  1
  9 14  2
 10 15  2
 11 16  1
 11 17  2
 12 18  1
 13 19  2
 13 20  1
 18 21  1
 18 22  1
 20 23  1
 20 24  1
 20 25  1
 23 26  1
 25 27  1
 27 28  2
 27 29  1
 28 30  1
 29 31  1
 29 32  1
 12 16  2
 14 19  1
 15 17  1
 21 22  1
 24 26  1
 30 31  2
M  END
> <COMPOUND_NAMES>
Example 604 (Page No: 718)

> <Reference>
WO2019148005

> <IC50_range_nM>
<100

> <smiles>
Cn1cnnc1CC1(COC1)c1cccc(c1)NC(c1cc(C2CC2)nc2ccnn12)=O

$$$$
C22H20F3N7O2
  MOLSOFT 03092310482D

 34 38  0  0  0  0  0  0  0  0999 V2000
    0.0000   -0.0000    0.0000 F   0  0  0
   -0.0118   -1.4850    0.0000 C   0  0  0
   -1.5203   -1.4732    0.0000 F   0  0  0
   -0.0236   -2.9700    0.0000 F   0  0  0
    1.4732   -1.4732    0.0000 C   0  0  0
    2.3453   -0.2475    0.0000 N   0  0  0
    2.3453   -2.6753    0.0000 C   0  0  0
    3.7596   -0.6954    0.0000 N   0  0  0
    3.7596   -2.2039    0.0000 C   0  0  0
    5.0442    0.0589    0.0000 C   0  0  0
    5.0442   -2.9346    0.0000 N   0  0  0
    5.0325    1.5675    0.0000 C   0  0  0
    6.3289   -0.6718    0.0000 C   0  0  0
    6.3289   -2.1803    0.0000 C   0  0  0
    3.7242    2.3218    0.0000 O   0  0  0
    6.3171    2.3218    0.0000 N   0  0  0
    7.6135   -2.9110    0.0000 C   0  0  0
    6.3053    3.8303    0.0000 C   0  0  0
    4.9971    4.5846    0.0000 C   0  0  0
    7.5899    4.5846    0.0000 C   0  0  0
    4.9853    6.0932    0.0000 C   0  0  0
    7.5781    6.0932    0.0000 C   0  0  0
    6.2699    6.8474    0.0000 C   0  0  0
    3.6771    6.8474    0.0000 C   0  0  0
    2.2157    6.4703    0.0000 C   0  0  0
    3.2764    8.3088    0.0000 C   0  0  0
    4.9617    7.6017    0.0000 C   0  0  0
    1.8150    7.9317    0.0000 O   0  0  0
    4.9500    9.1103    0.0000 C   0  0  0
    6.1521   10.0060    0.0000 N   0  0  0
    3.7242   10.0060    0.0000 N   0  0  0
    5.6807   11.4438    0.0000 N   0  0  0
    4.1721   11.4438    0.0000 C   0  0  0
    2.2864    9.5581    0.0000 C   0  0  0
  1  2  1
  2  3  1
  2  4  1
  2  5  1
  5  6  2
  5  7  1
  6  8  1
  7  9  2
  8 10  1
  9 11  1
 10 12  1
 10 13  2
 11 14  2
 12 15  2
 12 16  1
 14 17  1
 16 18  1
 18 19  2
 18 20  1
 19 21  1
 20 22  2
 21 23  2
 21 24  1
 24 25  1
 24 26  1
 24 27  1
 25 28  1
 27 29  1
 29 30  2
 29 31  1
 30 32  1
 31 33  1
 31 34  1
  8  9  1
 13 14  1
 22 23  1
 26 28  1
 32 33  2
M  END
> <COMPOUND_NAMES>
Example 598 (Page No: 715)

> <Reference>
WO2019148005

> <IC50_range_nM>
101-300

> <smiles>
Cc1cc(C(Nc2cccc(c2)C2(Cc3nncn3C)COC2)=O)n2c(cc(C(F)(F)F)n2)n1

$$$$
C22H20F3N7O2
  MOLSOFT 03092310482D

 34 38  0  0  0  0  0  0  0  0999 V2000
    0.0000   -0.0000    0.0000 F   0  0  0
    0.7400    1.3038    0.0000 C   0  0  0
    2.0203    0.5755    0.0000 F   0  0  0
    1.4682    2.6076    0.0000 F   0  0  0
   -0.5638    2.0555    0.0000 C   0  0  0
   -1.8676    1.3273    0.0000 N   0  0  0
   -0.5755    3.5590    0.0000 C   0  0  0
   -3.1714    2.0790    0.0000 C   0  0  0
   -1.8793    4.3107    0.0000 C   0  0  0
   -3.1831    3.5825    0.0000 N   0  0  0
   -4.6043    1.6327    0.0000 C   0  0  0
   -1.8911    5.8142    0.0000 C   0  0  0
   -4.6161    4.0523    0.0000 N   0  0  0
   -5.4970    2.8542    0.0000 C   0  0  0
   -5.0742    0.2232    0.0000 C   0  0  0
   -3.1948    6.5659    0.0000 O   0  0  0
   -0.6108    6.5659    0.0000 N   0  0  0
   -0.6225    8.0693    0.0000 C   0  0  0
   -1.9263    8.8211    0.0000 C   0  0  0
    0.6578    8.8211    0.0000 C   0  0  0
   -1.9381   10.3245    0.0000 C   0  0  0
    0.6460   10.3245    0.0000 C   0  0  0
   -0.6578   11.0763    0.0000 C   0  0  0
   -3.2418   11.0763    0.0000 C   0  0  0
   -4.6983   10.7004    0.0000 C   0  0  0
   -3.6412   12.5327    0.0000 C   0  0  0
   -1.9615   11.8397    0.0000 C   0  0  0
   -5.0977   12.1569    0.0000 O   0  0  0
   -1.9733   13.3432    0.0000 C   0  0  0
   -0.7752   14.2359    0.0000 N   0  0  0
   -3.1948   14.2359    0.0000 N   0  0  0
   -1.2451   15.6688    0.0000 N   0  0  0
   -2.7485   15.6688    0.0000 C   0  0  0
   -4.6278   13.7895    0.0000 C   0  0  0
  1  2  1
  2  3  1
  2  4  1
  2  5  1
  5  6  2
  5  7  1
  6  8  1
  7  9  2
  8 10  1
  8 11  2
  9 12  1
 10 13  1
 11 14  1
 11 15  1
 12 16  2
 12 17  1
 17 18  1
 18 19  2
 18 20  1
 19 21  1
 20 22  2
 21 23  2
 21 24  1
 24 25  1
 24 26  1
 24 27  1
 25 28  1
 27 29  1
 29 30  2
 29 31  1
 30 32  1
 31 33  1
 31 34  1
  9 10  1
 13 14  2
 22 23  1
 26 28  1
 32 33  2
M  END
> <COMPOUND_NAMES>
Example 599 (Page No: 716)

> <Reference>
WO2019148005

> <IC50_range_nM>
301-1000

> <smiles>
Cc1cnn2c(cc(C(F)(F)F)nc12)C(Nc1cccc(c1)C1(Cc2nncn2C)COC1)=O

$$$$
C19H19N7O
  MOLSOFT 03092310482D

 27 30  0  0  1  0  0  0  0  0999 V2000
    0.0000   -0.0000    0.0000 O   0  0  0
    1.2870   -0.7439    0.0000 C   0  0  0
    2.5740    0.0118    0.0000 N   0  0  0
    1.2752   -2.2316    0.0000 C   0  0  0
    2.5622    1.5232    0.0000 C   0  0  0
    2.4796   -3.1054    0.0000 C   0  0  0
    0.0472   -3.1054    0.0000 C   0  0  0
    1.2516    2.2788    0.0000 C   0  0  0
    3.8492    2.2788    0.0000 C   0  0  0
    3.9319   -2.7866    0.0000 N   0  0  0
    2.0073   -4.5223    0.0000 N   0  0  0
    0.4959   -4.5223    0.0000 N   0  0  0
    1.2398    3.7902    0.0000 C   0  0  0
    3.8374    3.7902    0.0000 C   0  0  0
    4.9237   -3.8847    0.0000 C   0  0  0
    2.9991   -5.6204    0.0000 C   0  0  0
    2.5268    4.5459    0.0000 C   0  0  0
   -0.0708    4.5459    0.0000 C   0  0  1
    4.4514   -5.3016    0.0000 C   0  0  0
   -1.3815    3.8138    0.0000 C   0  0  0
   -0.0827    6.0572    0.0000 C   0  0  0
   -2.6921    4.5695    0.0000 C   0  0  0
   -4.0736    3.9673    0.0000 N   0  0  0
   -2.8574    6.0690    0.0000 N   0  0  0
   -5.0890    5.0890    0.0000 N   0  0  0
   -4.3333    6.3878    0.0000 C   0  0  0
   -1.7593    7.0845    0.0000 C   0  0  0
  1  2  2
  2  3  1
  2  4  1
  3  5  1
  4  6  2
  4  7  1
  5  8  2
  5  9  1
  6 10  1
  6 11  1
  7 12  2
  8 13  1
  9 14  2
 10 15  2
 11 16  1
 13 17  2
 18 13  1
 15 19  1
 18 20  1
 18 21  1  1  0
 20 22  1
 22 23  2
 22 24  1
 23 25  1
 24 26  1
 24 27  1
 11 12  1
 14 17  1
 16 19  2
 25 26  2
M  END
> <COMPOUND_NAMES>
Example 324 (R) (Page No: 524)

> <Reference>
WO2019148005

> <IC50_range_nM>
301-1000

> <smiles>
C[C@H](Cc1nncn1C)c1cccc(c1)NC(c1cnn2cccnc12)=O

$$$$
C19H19N7O
  MOLSOFT 03092310482D

 27 30  0  0  1  0  0  0  0  0999 V2000
    0.0000   -0.0000    0.0000 O   0  0  0
    1.2876   -0.7442    0.0000 C   0  0  0
    2.5752    0.0118    0.0000 N   0  0  0
    1.2758   -2.2326    0.0000 C   0  0  0
    2.5634    1.5238    0.0000 C   0  0  0
   -0.0354   -2.9650    0.0000 N   0  0  0
    2.5634   -2.9650    0.0000 C   0  0  0
    1.2521    2.2799    0.0000 C   0  0  0
    3.8509    2.2799    0.0000 C   0  0  0
   -0.0473   -4.4534    0.0000 C   0  0  0
    2.5515   -4.4534    0.0000 N   0  0  0
    1.2403    3.7919    0.0000 C   0  0  0
    3.8391    3.7919    0.0000 C   0  0  0
    1.2403   -5.1858    0.0000 C   0  0  0
    3.6501   -5.4457    0.0000 C   0  0  0
    2.5279    4.5479    0.0000 C   0  0  0
   -0.0709    4.5479    0.0000 C   0  0  1
    1.5357   -6.6387    0.0000 N   0  0  0
    3.0241   -6.8041    0.0000 C   0  0  0
   -1.3821    3.8155    0.0000 C   0  0  0
   -0.0827    6.0599    0.0000 C   0  0  0
   -2.6933    4.5715    0.0000 C   0  0  0
   -4.0754    3.9691    0.0000 N   0  0  0
   -2.8587    6.0717    0.0000 N   0  0  0
   -5.0913    5.0913    0.0000 N   0  0  0
   -4.3353    6.3907    0.0000 C   0  0  0
   -1.7601    7.0876    0.0000 C   0  0  0
  1  2  2
  2  3  1
  2  4  1
  3  5  1
  4  6  1
  4  7  2
  5  8  2
  5  9  1
  6 10  2
  7 11  1
  8 12  1
  9 13  2
 10 14  1
 11 15  1
 12 16  2
 17 12  1
 14 18  2
 15 19  2
 17 20  1
 17 21  1  1  0
 20 22  1
 22 23  2
 22 24  1
 23 25  1
 24 26  1
 24 27  1
 11 14  1
 13 16  1
 18 19  1
 25 26  2
M  END
> <COMPOUND_NAMES>
Example 318 (R) (Page No: 519)

> <Reference>
WO2019148005

> <IC50_range_nM>
301-1000

> <smiles>
C[C@H](Cc1nncn1C)c1cccc(c1)NC(c1cn2ccnc2cn1)=O

$$$$
C17H17F3N6O
  MOLSOFT 03092310482D

 27 29  0  0  1  0  0  0  0  0999 V2000
    0.0000   -0.0000    0.0000 F   0  0  0
    1.1985    0.8930    0.0000 C   0  0  0
    2.0680   -0.3055    0.0000 F   0  0  0
    2.3970    1.7860    0.0000 F   0  0  0
    0.3055    2.1150    0.0000 C   0  0  0
    0.7520    3.5484    0.0000 N   0  0  0
   -1.1985    2.1267    0.0000 C   0  0  0
   -0.4700    4.4414    0.0000 C   0  0  0
   -1.6685    3.5602    0.0000 N   0  0  0
   -0.4817    5.9454    0.0000 C   0  0  0
   -1.7860    6.6974    0.0000 O   0  0  0
    0.7990    6.6974    0.0000 N   0  0  0
    0.7872    8.2013    0.0000 C   0  0  0
   -0.5170    8.9651    0.0000 C   0  0  0
    2.0680    8.9651    0.0000 C   0  0  0
   -0.5287   10.4691    0.0000 C   0  0  0
    2.0562   10.4691    0.0000 C   0  0  0
    0.7520   11.2210    0.0000 C   0  0  0
   -1.8330   11.2210    0.0000 C   0  0  1
   -3.1372   10.4926    0.0000 C   0  0  0
   -1.8447   12.7250    0.0000 C   0  0  0
   -4.4414   11.2445    0.0000 C   0  0  0
   -5.8161   10.6453    0.0000 N   0  0  0
   -4.6059   12.7368    0.0000 N   0  0  0
   -6.8266   11.7615    0.0000 N   0  0  0
   -6.0746   13.0540    0.0000 C   0  0  0
   -3.5132   13.7472    0.0000 C   0  0  0
  1  2  1
  2  3  1
  2  4  1
  2  5  1
  5  6  1
  5  7  2
  6  8  1
  7  9  1
  8 10  1
 10 11  2
 10 12  1
 12 13  1
 13 14  2
 13 15  1
 14 16  1
 15 17  2
 16 18  2
 19 16  1
 19 20  1
 19 21  1  1  0
 20 22  1
 22 23  2
 22 24  1
 23 25  1
 24 26  1
 24 27  1
  8  9  2
 17 18  1
 25 26  2
M  END
> <COMPOUND_NAMES>
Example 326 (R) (Page No: 524)

> <Reference>
WO2019148005

> <IC50_range_nM>
101-300

> <smiles>
C[C@H](Cc1nncn1C)c1cccc(c1)NC(c1ncc(C(F)(F)F)[nH]1)=O

$$$$
C23H24N6O
  MOLSOFT 03092310482D

 30 34  0  0  1  0  0  0  0  0999 V2000
    0.0000   -0.0000    0.0000 O   0  0  0
    1.2855   -0.7430    0.0000 C   0  0  0
    2.5709    0.0118    0.0000 N   0  0  0
    1.2737   -2.2289    0.0000 C   0  0  0
    2.5591    1.5213    0.0000 C   0  0  0
    2.4766   -3.1016    0.0000 N   0  0  0
    0.0472   -3.1016    0.0000 N   0  0  0
    1.2501    2.2761    0.0000 C   0  0  0
    3.8446    2.2761    0.0000 C   0  0  0
    2.0048   -4.5168    0.0000 C   0  0  0
    0.4953   -4.5168    0.0000 C   0  0  0
    1.2383    3.7856    0.0000 C   0  0  0
    3.8328    3.7856    0.0000 C   0  0  0
    2.7478   -5.8023    0.0000 C   0  0  0
   -0.2595   -5.8023    0.0000 C   0  0  0
    2.5237    4.5404    0.0000 C   0  0  0
   -0.0708    4.5404    0.0000 C   0  0  1
    1.9931   -7.0877    0.0000 C   0  0  0
    0.4717   -7.0877    0.0000 C   0  0  0
   -1.7690   -5.7905    0.0000 C   0  0  0
   -1.3798    3.8092    0.0000 C   0  0  0
   -0.0826    6.0499    0.0000 C   0  0  0
   -3.0780   -6.5216    0.0000 C   0  0  0
   -3.0780   -5.0357    0.0000 C   0  0  0
   -2.6888    4.5640    0.0000 C   0  0  0
   -4.0687    3.9625    0.0000 N   0  0  0
   -2.8540    6.0617    0.0000 N   0  0  0
   -5.0829    5.0829    0.0000 N   0  0  0
   -4.3281    6.3801    0.0000 C   0  0  0
   -1.7572    7.0759    0.0000 C   0  0  0
  1  2  2
  2  3  1
  2  4  1
  3  5  1
  4  6  2
  4  7  1
  5  8  2
  5  9  1
  6 10  1
  7 11  1
  8 12  1
  9 13  2
 10 14  1
 11 15  1
 12 16  2
 17 12  1
 14 18  2
 15 19  2
 15 20  1
 17 21  1
 17 22  1  1  0
 20 23  1
 20 24  1
 21 25  1
 25 26  2
 25 27  1
 26 28  1
 27 29  1
 27 30  1
 10 11  2
 13 16  1
 18 19  1
 23 24  1
 28 29  2
M  END
> <COMPOUND_NAMES>
Example 319 (R) (Page No: 519)

> <Reference>
WO2019148005

> <IC50_range_nM>
101-300

> <smiles>
C[C@H](Cc1nncn1C)c1cccc(c1)NC(c1nc2cccc(C3CC3)c2[nH]1)=O

$$$$
C21H19F3N6O
  MOLSOFT 03092310482D

 31 34  0  0  1  0  0  0  0  0999 V2000
    0.0000   -0.0000    0.0000 F   0  0  0
   -0.0118   -1.4853    0.0000 C   0  0  0
   -1.5207   -1.4735    0.0000 F   0  0  0
   -0.0236   -2.9706    0.0000 F   0  0  0
    1.4735   -1.4735    0.0000 C   0  0  0
    2.2044   -0.1650    0.0000 C   0  0  0
    2.2044   -2.7584    0.0000 C   0  0  0
    1.7328    1.2731    0.0000 N   0  0  0
    3.6896   -0.1532    0.0000 C   0  0  0
    3.6896   -2.7466    0.0000 C   0  0  0
    2.9352    2.1690    0.0000 C   0  0  0
    4.1376    1.2849    0.0000 N   0  0  0
    4.4323   -1.4381    0.0000 C   0  0  0
    2.9234    3.6779    0.0000 C   0  0  0
    1.6150    4.4323    0.0000 O   0  0  0
    4.2083    4.4323    0.0000 N   0  0  0
    4.1965    5.9411    0.0000 C   0  0  0
    2.8881    6.6956    0.0000 C   0  0  0
    5.4814    6.6956    0.0000 C   0  0  0
    2.8763    8.2044    0.0000 C   0  0  0
    5.4696    8.2044    0.0000 C   0  0  0
    4.1612    8.9589    0.0000 C   0  0  0
    1.5678    8.9589    0.0000 C   0  0  1
    0.2593    8.2280    0.0000 C   0  0  0
    1.5560   10.4677    0.0000 C   0  0  0
   -1.0491    8.9824    0.0000 C   0  0  0
   -2.4283    8.3813    0.0000 N   0  0  0
   -1.2142   10.4795    0.0000 N   0  0  0
   -3.4421    9.5011    0.0000 N   0  0  0
   -2.6877   10.7978    0.0000 C   0  0  0
   -0.1179   11.4933    0.0000 C   0  0  0
  1  2  1
  2  3  1
  2  4  1
  2  5  1
  5  6  2
  5  7  1
  6  8  1
  6  9  1
  7 10  2
  8 11  1
  9 12  1
  9 13  2
 11 14  1
 14 15  2
 14 16  1
 16 17  1
 17 18  2
 17 19  1
 18 20  1
 19 21  2
 20 22  2
 23 20  1
 23 24  1
 23 25  1  1  0
 24 26  1
 26 27  2
 26 28  1
 27 29  1
 28 30  1
 28 31  1
 10 13  1
 11 12  2
 21 22  1
 29 30  2
M  END
> <COMPOUND_NAMES>
Example 196 (R) (Page No: 439)

> <Reference>
WO2019148005

> <IC50_range_nM>
<100

> <smiles>
C[C@H](Cc1nncn1C)c1cccc(c1)NC(c1nc2cccc(c2[nH]1)C(F)(F)F)=O

$$$$
C21H17F3N6O
  MOLSOFT 03092310482D

 31 35  0  0  1  0  0  0  0  0999 V2000
    0.0000   -0.0000    0.0000 F   0  0  0
   -0.0118   -1.4867    0.0000 C   0  0  0
   -1.5221   -1.4749    0.0000 F   0  0  0
   -0.0236   -2.9735    0.0000 F   0  0  0
    1.4749   -1.4749    0.0000 C   0  0  0
    2.2065   -0.1652    0.0000 C   0  0  0
    2.2065   -2.7611    0.0000 C   0  0  0
    1.7345    1.2744    0.0000 N   0  0  0
    3.6933   -0.1534    0.0000 C   0  0  0
    3.6933   -2.7493    0.0000 C   0  0  0
    2.9381    2.1711    0.0000 C   0  0  0
    4.1416    1.2862    0.0000 N   0  0  0
    4.4248   -1.4395    0.0000 C   0  0  0
    2.9263    3.6815    0.0000 C   0  0  0
    1.6165    4.4484    0.0000 O   0  0  0
    4.2124    4.4484    0.0000 N   0  0  0
    4.2006    5.9588    0.0000 C   0  0  0
    2.8909    6.7140    0.0000 C   0  0  0
    5.4868    6.7140    0.0000 C   0  0  0
    2.8791    8.2243    0.0000 C   0  0  0
    5.4750    8.2243    0.0000 C   0  0  0
    4.1652    8.9795    0.0000 C   0  0  0
    1.5693    8.9795    0.0000 C   0  0  2
    0.0590    8.9913    0.0000 C   0  0  1
    0.8142   10.2892    0.0000 C   0  0  0
   -1.2508    8.2597    0.0000 C   0  0  0
   -2.6313    8.8851    0.0000 N   0  0  0
   -1.4159    6.7847    0.0000 N   0  0  0
   -3.6461    7.7877    0.0000 N   0  0  0
   -2.8909    6.4898    0.0000 C   0  0  0
   -0.3186    5.7936    0.0000 C   0  0  0
  1  2  1
  2  3  1
  2  4  1
  2  5  1
  5  6  2
  5  7  1
  6  8  1
  6  9  1
  7 10  2
  8 11  1
  9 12  1
  9 13  2
 11 14  1
 14 15  2
 14 16  1
 16 17  1
 17 18  2
 17 19  1
 18 20  1
 19 21  2
 20 22  2
 23 20  1  6  0
 23 24  1
 23 25  1
 24 26  1  6  0
 26 27  2
 26 28  1
 27 29  1
 28 30  1
 28 31  1
 10 13  1
 11 12  2
 21 22  1
 24 25  1
 29 30  2
M  END
> <COMPOUND_NAMES>
Example 332 (Stereo) (Page No: 527)

> <Reference>
WO2019148005

> <IC50_range_nM>
101-300

> <smiles>
Cn1cnnc1[C@@H]1C[C@@H]1c1cccc(c1)NC(c1nc2cccc(c2[nH]1)C(F)(F)F)=O

$$$$
C22H19F3N6O2
  MOLSOFT 03092310482D

 33 37  0  0  0  0  0  0  0  0999 V2000
    0.0000   -0.0000    0.0000 F   0  0  0
   -0.0118   -1.4836    0.0000 C   0  0  0
   -1.5190   -1.4719    0.0000 F   0  0  0
   -0.0235   -2.9673    0.0000 F   0  0  0
    1.4719   -1.4719    0.0000 C   0  0  0
    2.2019   -0.1648    0.0000 C   0  0  0
    2.2019   -2.7553    0.0000 C   0  0  0
    1.7309    1.2717    0.0000 N   0  0  0
    3.6855   -0.1531    0.0000 C   0  0  0
    3.6855   -2.7435    0.0000 C   0  0  0
    2.9319    2.1666    0.0000 C   0  0  0
    4.1330    1.2835    0.0000 N   0  0  0
    4.4273   -1.4365    0.0000 C   0  0  0
    2.9202    3.6737    0.0000 C   0  0  0
    1.6132    4.4273    0.0000 O   0  0  0
    4.2036    4.4273    0.0000 N   0  0  0
    4.1918    5.9345    0.0000 C   0  0  0
    2.8848    6.6881    0.0000 C   0  0  0
    5.4753    6.6881    0.0000 C   0  0  0
    2.8731    8.1953    0.0000 C   0  0  0
    5.4635    8.1953    0.0000 C   0  0  0
    4.1565    8.9489    0.0000 C   0  0  0
    1.5661    8.9489    0.0000 C   0  0  0
    0.1060    8.5721    0.0000 C   0  0  0
    1.1657   10.4089    0.0000 C   0  0  0
    2.8495    9.7025    0.0000 C   0  0  0
   -0.2944   10.0321    0.0000 O   0  0  0
    2.8377   11.2096    0.0000 C   0  0  0
    4.0388   12.1045    0.0000 N   0  0  0
    1.6132   12.1045    0.0000 N   0  0  0
    3.5678   13.5410    0.0000 N   0  0  0
    2.0606   13.5410    0.0000 C   0  0  0
    0.1766   11.6571    0.0000 C   0  0  0
  1  2  1
  2  3  1
  2  4  1
  2  5  1
  5  6  2
  5  7  1
  6  8  1
  6  9  1
  7 10  2
  8 11  1
  9 12  1
  9 13  2
 11 14  1
 14 15  2
 14 16  1
 16 17  1
 17 18  2
 17 19  1
 18 20  1
 19 21  2
 20 22  2
 20 23  1
 23 24  1
 23 25  1
 23 26  1
 24 27  1
 26 28  1
 28 29  2
 28 30  1
 29 31  1
 30 32  1
 30 33  1
 10 13  1
 11 12  2
 21 22  1
 25 27  1
 31 32  2
M  END
> <COMPOUND_NAMES>
Example 335 (Page No: 528)

> <Reference>
WO2019148005

> <IC50_range_nM>
<100

> <smiles>
Cn1cnnc1CC1(COC1)c1cccc(c1)NC(c1nc2cccc(c2[nH]1)C(F)(F)F)=O

$$$$
C21H16F6N6O
  MOLSOFT 03092310482D

 34 37  0  0  1  0  0  0  0  0999 V2000
    0.0000   -0.0000    0.0000 F   0  0  0
   -0.0118   -1.4854    0.0000 C   0  0  0
   -1.5208   -1.4736    0.0000 F   0  0  0
   -0.0236   -2.9708    0.0000 F   0  0  0
    1.4736   -1.4736    0.0000 C   0  0  0
    2.2045   -0.1650    0.0000 C   0  0  0
    2.2045   -2.7586    0.0000 C   0  0  0
    1.7330    1.2732    0.0000 N   0  0  0
    3.6900   -0.1533    0.0000 C   0  0  0
    3.6900   -2.7468    0.0000 C   0  0  0
    2.9355    2.1692    0.0000 C   0  0  0
    4.1379    1.2850    0.0000 N   0  0  0
    4.4327   -1.4383    0.0000 C   0  0  0
    2.9237    3.6782    0.0000 C   0  0  0
    1.6151    4.4445    0.0000 O   0  0  0
    4.2087    4.4445    0.0000 N   0  0  0
    4.1969    5.9535    0.0000 C   0  0  0
    2.8883    6.7080    0.0000 C   0  0  0
    5.4819    6.7080    0.0000 C   0  0  0
    2.8765    8.2169    0.0000 C   0  0  0
    5.4701    8.2169    0.0000 C   0  0  0
    4.1615    8.9714    0.0000 C   0  0  0
    1.5679    8.9714    0.0000 C   0  0  1
    2.2989   10.2800    0.0000 F   0  0  0
    0.2594    9.7259    0.0000 C   0  0  0
    0.8134    7.6864    0.0000 C   0  0  0
   -0.4951    8.4409    0.0000 F   0  0  0
    1.0021   11.0345    0.0000 F   0  0  0
   -1.0492   10.4922    0.0000 C   0  0  0
   -1.2143   11.9894    0.0000 N   0  0  0
   -2.4285    9.8910    0.0000 N   0  0  0
   -2.6879   12.3077    0.0000 N   0  0  0
   -3.4424   11.0109    0.0000 C   0  0  0
   -2.7468    8.4409    0.0000 C   0  0  0
  1  2  1
  2  3  1
  2  4  1
  2  5  1
  5  6  2
  5  7  1
  6  8  1
  6  9  1
  7 10  2
  8 11  1
  9 12  1
  9 13  2
 11 14  1
 14 15  2
 14 16  1
 16 17  1
 17 18  2
 17 19  1
 18 20  1
 19 21  2
 20 22  2
 23 20  1
 23 24  1
 23 25  1  6  0
 23 26  1
 25 27  1
 25 28  1
 25 29  1
 29 30  2
 29 31  1
 30 32  1
 31 33  1
 31 34  1
 10 13  1
 11 12  2
 21 22  1
 32 33  2
M  END
> <COMPOUND_NAMES>
Example 345 (R) (Page No: 534)

> <Reference>
WO2019148005

> <IC50_range_nM>
101-300

> <smiles>
C[C@@](c1cccc(c1)NC(c1nc2cccc(c2[nH]1)C(F)(F)F)=O)(C(c1nncn1C)(F)F)F

$$$$
C19H17F3N4O2
  MOLSOFT 03092310482D

 28 30  0  0  1  0  0  0  0  0999 V2000
    0.0000   -0.0000    0.0000 F   0  0  0
    0.7291    1.3053    0.0000 C   0  0  0
    2.0109    0.5762    0.0000 F   0  0  0
    1.4582    2.6106    0.0000 F   0  0  0
   -0.5762    2.0579    0.0000 C   0  0  0
   -0.5880    3.5631    0.0000 N   0  0  0
   -1.8815    1.3288    0.0000 N   0  0  0
   -1.8933    4.3157    0.0000 C   0  0  0
   -3.1868    2.0814    0.0000 C   0  0  0
   -1.9050    5.8209    0.0000 C   0  0  0
   -3.1986    3.5866    0.0000 C   0  0  0
   -3.2103    6.5735    0.0000 O   0  0  0
   -0.6232    6.5735    0.0000 N   0  0  0
   -0.6350    8.0787    0.0000 C   0  0  0
   -1.9403    8.8313    0.0000 C   0  0  0
    0.6468    8.8313    0.0000 C   0  0  0
   -1.9521   10.3365    0.0000 C   0  0  0
    0.6350   10.3365    0.0000 C   0  0  0
   -0.6703   11.0891    0.0000 C   0  0  0
   -3.2574   11.0891    0.0000 C   0  0  1
   -4.5626   10.3600    0.0000 C   0  0  0
   -3.2691   12.5943    0.0000 C   0  0  0
   -5.8679   11.1126    0.0000 C   0  0  0
   -7.2438   10.5129    0.0000 N   0  0  0
   -6.0326   12.6061    0.0000 C   0  0  0
   -8.2551   11.6300    0.0000 O   0  0  0
   -7.5025   12.9236    0.0000 C   0  0  0
   -4.9389   13.6174    0.0000 C   0  0  0
  1  2  1
  2  3  1
  2  4  1
  2  5  1
  5  6  2
  5  7  1
  6  8  1
  7  9  2
  8 10  1
  8 11  2
 10 12  2
 10 13  1
 13 14  1
 14 15  2
 14 16  1
 15 17  1
 16 18  2
 17 19  2
 20 17  1
 20 21  1
 20 22  1  1  0
 21 23  1
 23 24  2
 23 25  1
 24 26  1
 25 27  2
 25 28  1
  9 11  1
 18 19  1
 26 27  1
M  END
> <COMPOUND_NAMES>
Example 213a (R) (Page No: 449)

> <Reference>
WO2019148005

> <IC50_range_nM>
101-300

> <smiles>
Cc1conc1C[C@@H](C)c1cccc(c1)NC(c1ccnc(C(F)(F)F)n1)=O

$$$$
C19H17F3N4O2
  MOLSOFT 03092310482D

 28 30  0  0  1  0  0  0  0  0999 V2000
    0.0000   -0.0000    0.0000 F   0  0  0
    0.7291    1.3053    0.0000 C   0  0  0
    2.0109    0.5762    0.0000 F   0  0  0
    1.4582    2.6106    0.0000 F   0  0  0
   -0.5762    2.0579    0.0000 C   0  0  0
   -0.5880    3.5631    0.0000 N   0  0  0
   -1.8815    1.3288    0.0000 N   0  0  0
   -1.8933    4.3157    0.0000 C   0  0  0
   -3.1868    2.0814    0.0000 C   0  0  0
   -1.9050    5.8209    0.0000 C   0  0  0
   -3.1986    3.5866    0.0000 C   0  0  0
   -3.2103    6.5735    0.0000 O   0  0  0
   -0.6232    6.5735    0.0000 N   0  0  0
   -0.6350    8.0787    0.0000 C   0  0  0
   -1.9403    8.8313    0.0000 C   0  0  0
    0.6468    8.8313    0.0000 C   0  0  0
   -1.9521   10.3365    0.0000 C   0  0  0
    0.6350   10.3365    0.0000 C   0  0  0
   -0.6703   11.0891    0.0000 C   0  0  0
   -3.2574   11.0891    0.0000 C   0  0  2
   -4.5626   10.3600    0.0000 C   0  0  0
   -3.2691   12.5943    0.0000 C   0  0  0
   -5.8679   11.1126    0.0000 C   0  0  0
   -7.2438   10.5129    0.0000 N   0  0  0
   -6.0326   12.6061    0.0000 C   0  0  0
   -8.2551   11.6300    0.0000 O   0  0  0
   -7.5025   12.9236    0.0000 C   0  0  0
   -4.9389   13.6174    0.0000 C   0  0  0
  1  2  1
  2  3  1
  2  4  1
  2  5  1
  5  6  2
  5  7  1
  6  8  1
  7  9  2
  8 10  1
  8 11  2
 10 12  2
 10 13  1
 13 14  1
 14 15  2
 14 16  1
 15 17  1
 16 18  2
 17 19  2
 20 17  1
 20 21  1
 20 22  1  6  0
 21 23  1
 23 24  2
 23 25  1
 24 26  1
 25 27  2
 25 28  1
  9 11  1
 18 19  1
 26 27  1
M  END
> <COMPOUND_NAMES>
Example 213b (S) (Page No: 449)

> <Reference>
WO2019148005

> <IC50_range_nM>
3001-10000

> <smiles>
Cc1conc1C[C@H](C)c1cccc(c1)NC(c1ccnc(C(F)(F)F)n1)=O

$$$$
C22H24N4O2
  MOLSOFT 03092310482D

 28 31  0  0  1  0  0  0  0  0999 V2000
    0.0000   -0.0000    0.0000 O   0  0  0
    1.2877   -0.7325    0.0000 C   0  0  0
    2.5755    0.0236    0.0000 N   0  0  0
    1.2759   -2.2211    0.0000 C   0  0  0
    2.5637    1.5358    0.0000 C   0  0  0
    2.5637   -2.9536    0.0000 N   0  0  0
   -0.0354   -2.9536    0.0000 C   0  0  0
    1.2523    2.2920    0.0000 C   0  0  0
    3.8514    2.2920    0.0000 C   0  0  0
    2.5519   -4.4421    0.0000 C   0  0  0
   -0.0473   -4.4421    0.0000 C   0  0  0
    1.2405    3.8042    0.0000 C   0  0  0
    3.8396    3.8042    0.0000 C   0  0  0
    1.2405   -5.1746    0.0000 N   0  0  0
    3.8396   -5.1746    0.0000 C   0  0  0
   -1.3586   -5.1746    0.0000 C   0  0  0
    2.5282    4.5603    0.0000 C   0  0  0
   -0.0709    4.5603    0.0000 C   0  0  1
    5.3282   -5.1628    0.0000 C   0  0  0
    4.5721   -6.4624    0.0000 C   0  0  0
   -1.3823    3.8278    0.0000 C   0  0  0
   -0.0827    6.0725    0.0000 C   0  0  0
   -2.6936    4.5839    0.0000 C   0  0  0
   -4.0759    3.9814    0.0000 N   0  0  0
   -2.8590    6.0843    0.0000 C   0  0  0
   -5.0919    5.1037    0.0000 O   0  0  0
   -4.3358    6.4033    0.0000 C   0  0  0
   -1.7603    7.1003    0.0000 C   0  0  0
  1  2  2
  2  3  1
  2  4  1
  3  5  1
  4  6  2
  4  7  1
  5  8  2
  5  9  1
  6 10  1
  7 11  2
  8 12  1
  9 13  2
 10 14  2
 10 15  1
 11 16  1
 12 17  2
 18 12  1
 15 19  1
 15 20  1
 18 21  1
 18 22  1  1  0
 21 23  1
 23 24  2
 23 25  1
 24 26  1
 25 27  2
 25 28  1
 11 14  1
 13 17  1
 19 20  1
 26 27  1
M  END
> <COMPOUND_NAMES>
Example 330 (R) (Page No: 526)

> <Reference>
WO2019148005

> <IC50_range_nM>
<100

> <smiles>
Cc1conc1C[C@@H](C)c1cccc(c1)NC(c1cc(C)nc(C2CC2)n1)=O

$$$$
C23H24N4O3
  MOLSOFT 03092310482D

 30 34  0  0  0  0  0  0  0  0999 V2000
    0.0000   -0.0000    0.0000 O   0  0  0
    1.2846   -0.7307    0.0000 C   0  0  0
    2.5692    0.0236    0.0000 N   0  0  0
    1.2728   -2.2156    0.0000 C   0  0  0
    2.5574    1.5321    0.0000 C   0  0  0
   -0.0354   -2.9581    0.0000 N   0  0  0
    2.5574   -2.9581    0.0000 C   0  0  0
    1.2492    2.2863    0.0000 C   0  0  0
    3.8420    2.2863    0.0000 C   0  0  0
   -0.0471   -4.4430    0.0000 C   0  0  0
    2.5456   -4.4430    0.0000 C   0  0  0
    1.2375    3.7949    0.0000 C   0  0  0
    3.8302    3.7949    0.0000 C   0  0  0
    1.2375   -5.1737    0.0000 N   0  0  0
   -1.3553   -5.1737    0.0000 C   0  0  0
    3.8302   -5.1737    0.0000 C   0  0  0
    2.5220    4.5491    0.0000 C   0  0  0
   -0.0707    4.5491    0.0000 C   0  0  0
   -2.1096   -6.4583    0.0000 C   0  0  0
   -2.8638   -5.1619    0.0000 C   0  0  0
   -1.5321    4.1720    0.0000 C   0  0  0
   -0.4714    6.0105    0.0000 C   0  0  0
    1.2139    5.3151    0.0000 C   0  0  0
   -1.9328    5.6333    0.0000 O   0  0  0
    1.2021    6.8237    0.0000 C   0  0  0
    2.4042    7.7193    0.0000 N   0  0  0
   -0.0236    7.7193    0.0000 C   0  0  0
    1.9328    9.1571    0.0000 O   0  0  0
    0.4243    9.1571    0.0000 C   0  0  0
   -1.4614    7.2715    0.0000 C   0  0  0
  1  2  2
  2  3  1
  2  4  1
  3  5  1
  4  6  2
  4  7  1
  5  8  2
  5  9  1
  6 10  1
  7 11  2
  8 12  1
  9 13  2
 10 14  2
 10 15  1
 11 16  1
 12 17  2
 12 18  1
 15 19  1
 15 20  1
 18 21  1
 18 22  1
 18 23  1
 21 24  1
 23 25  1
 25 26  2
 25 27  1
 26 28  1
 27 29  2
 27 30  1
 11 14  1
 13 17  1
 19 20  1
 22 24  1
 28 29  1
M  END
> <COMPOUND_NAMES>
Example 509 (Page No: 651)

> <Reference>
WO2019148005

> <IC50_range_nM>
<100

> <smiles>
Cc1conc1CC1(COC1)c1cccc(c1)NC(c1cc(C)nc(C2CC2)n1)=O

$$$$
C27H31N5O4
  MOLSOFT 03092310482D

 36 41  0  0  1  0  0  0  0  0999 V2000
    0.0000   -0.0000    0.0000 O   0  0  0
    1.2843   -0.7305    0.0000 C   0  0  0
    2.5685    0.0236    0.0000 N   0  0  0
    1.2725   -2.2151    0.0000 C   0  0  0
    2.5568    1.5317    0.0000 C   0  0  0
    2.5568   -2.9573    0.0000 N   0  0  0
   -0.0353   -2.9573    0.0000 C   0  0  0
    1.2489    2.2858    0.0000 C   0  0  0
    3.8410    2.2858    0.0000 C   0  0  0
    2.5450   -4.4419    0.0000 C   0  0  0
   -0.0471   -4.4419    0.0000 C   0  0  0
    1.2371    3.7939    0.0000 C   0  0  0
    3.8292    3.7939    0.0000 C   0  0  0
    1.2371   -5.1724    0.0000 N   0  0  0
    3.8292   -5.1724    0.0000 C   0  0  0
   -1.3550   -5.1724    0.0000 C   0  0  0
    2.5214    4.5480    0.0000 C   0  0  0
   -0.0707    4.5480    0.0000 C   0  0  0
    5.3138   -5.1606    0.0000 C   0  0  0
    4.5597   -6.4567    0.0000 C   0  0  0
   -2.6628   -4.4184    0.0000 N   0  0  0
   -1.5317    4.1709    0.0000 C   0  0  0
   -0.4713    6.0090    0.0000 C   0  0  0
    1.2136    5.3138    0.0000 C   0  0  0
   -2.8277   -2.9220    0.0000 C   0  0  0
   -4.0413   -5.0192    0.0000 C   0  0  0
   -1.9323    5.6319    0.0000 O   0  0  0
    1.2018    6.8219    0.0000 C   0  0  0
   -4.3005   -2.6039    0.0000 C   0  0  2
   -5.0546   -3.8999    0.0000 C   0  0  0
    2.4036    7.7174    0.0000 N   0  0  0
   -0.0236    7.7174    0.0000 C   0  0  0
   -4.9250   -1.2254    0.0000 O   0  0  0
    1.9323    9.1548    0.0000 O   0  0  0
    0.4242    9.1548    0.0000 C   0  0  0
   -1.4610    7.2697    0.0000 C   0  0  0
  1  2  2
  2  3  1
  2  4  1
  3  5  1
  4  6  2
  4  7  1
  5  8  2
  5  9  1
  6 10  1
  7 11  2
  8 12  1
  9 13  2
 10 14  2
 10 15  1
 11 16  1
 12 17  2
 12 18  1
 15 19  1
 15 20  1
 16 21  1
 18 22  1
 18 23  1
 18 24  1
 21 25  1
 21 26  1
 22 27  1
 24 28  1
 29 25  1
 26 30  1
 28 31  2
 28 32  1
 29 33  1  6  0
 31 34  1
 32 35  2
 32 36  1
 11 14  1
 13 17  1
 19 20  1
 23 27  1
 29 30  1
 34 35  1
M  END
> <COMPOUND_NAMES>
Example 507 (S) (Page No: 650)

> <Reference>
WO2019148005

> <IC50_range_nM>
<100

> <smiles>
Cc1conc1CC1(COC1)c1cccc(c1)NC(c1cc(CN2CC[C@@H](C2)O)nc(C2CC2)n1)=O

$$$$
C30H34N4O3
  MOLSOFT 03092310482D

 37 43  0  0  0  0  0  0  0  0999 V2000
    0.0000   -0.0000    0.0000 O   0  0  0
    1.2843   -0.7305    0.0000 C   0  0  0
    2.5685    0.0236    0.0000 N   0  0  0
    1.2725   -2.2151    0.0000 C   0  0  0
    2.5567    1.5317    0.0000 C   0  0  0
    2.5567   -2.9573    0.0000 N   0  0  0
   -0.0353   -2.9573    0.0000 C   0  0  0
    1.2489    2.2857    0.0000 C   0  0  0
    3.8410    2.2857    0.0000 C   0  0  0
    2.5450   -4.4419    0.0000 C   0  0  0
   -0.0471   -4.4419    0.0000 C   0  0  0
    1.2371    3.7939    0.0000 C   0  0  0
    3.8292    3.7939    0.0000 C   0  0  0
    1.2371   -5.1724    0.0000 C   0  0  0
    3.8292   -5.1724    0.0000 C   0  0  0
   -1.3550   -5.1724    0.0000 C   0  0  0
    2.5214    4.5479    0.0000 C   0  0  0
   -0.0707    4.5479    0.0000 C   0  0  0
    5.3138   -5.1606    0.0000 C   0  0  0
    4.5597   -6.4567    0.0000 C   0  0  0
   -2.6628   -4.4183    0.0000 N   0  0  0
   -1.5317    4.1709    0.0000 C   0  0  0
   -0.4713    6.0089    0.0000 C   0  0  0
    1.2136    5.3138    0.0000 C   0  0  0
   -2.8277   -2.9220    0.0000 C   0  0  0
   -4.0413   -5.0192    0.0000 C   0  0  0
   -1.9323    5.6319    0.0000 O   0  0  0
    1.2018    6.8219    0.0000 C   0  0  0
   -4.3005   -2.6039    0.0000 C   0  0  0
   -5.0546   -3.8999    0.0000 C   0  0  0
    2.4036    7.7173    0.0000 N   0  0  0
   -0.0236    7.7173    0.0000 C   0  0  0
   -5.5259   -1.7084    0.0000 C   0  0  0
   -4.1591   -1.1075    0.0000 C   0  0  0
    1.9323    9.1548    0.0000 O   0  0  0
    0.4242    9.1548    0.0000 C   0  0  0
   -1.4610    7.2696    0.0000 C   0  0  0
  1  2  2
  2  3  1
  2  4  1
  3  5  1
  4  6  2
  4  7  1
  5  8  2
  5  9  1
  6 10  1
  7 11  2
  8 12  1
  9 13  2
 10 14  2
 10 15  1
 11 16  1
 12 17  2
 12 18  1
 15 19  1
 15 20  1
 16 21  1
 18 22  1
 18 23  1
 18 24  1
 21 25  1
 21 26  1
 22 27  1
 24 28  1
 25 29  1
 26 30  1
 28 31  2
 28 32  1
 29 33  1
 29 34  1
 31 35  1
 32 36  2
 32 37  1
 11 14  1
 13 17  1
 19 20  1
 23 27  1
 29 30  1
 33 34  1
 35 36  1
M  END
> <COMPOUND_NAMES>
Example 500 (Page No: 645)

> <Reference>
WO2019148005

> <IC50_range_nM>
<100

> <smiles>
Cc1conc1CC1(COC1)c1cccc(c1)NC(c1cc(CN2CCC3(CC3)C2)cc(C2CC2)n1)=O

$$$$
C29H33N5O3
  MOLSOFT 03092310482D

 37 43  0  0  0  0  0  0  0  0999 V2000
    0.0000   -0.0000    0.0000 O   0  0  0
    1.2843   -0.7305    0.0000 C   0  0  0
    2.5685    0.0236    0.0000 N   0  0  0
    1.2725   -2.2151    0.0000 C   0  0  0
    2.5567    1.5317    0.0000 C   0  0  0
    2.5567   -2.9573    0.0000 N   0  0  0
   -0.0353   -2.9573    0.0000 C   0  0  0
    1.2489    2.2857    0.0000 C   0  0  0
    3.8410    2.2857    0.0000 C   0  0  0
    2.5450   -4.4419    0.0000 C   0  0  0
   -0.0471   -4.4419    0.0000 C   0  0  0
    1.2371    3.7939    0.0000 C   0  0  0
    3.8292    3.7939    0.0000 C   0  0  0
    1.2371   -5.1724    0.0000 N   0  0  0
    3.8292   -5.1724    0.0000 C   0  0  0
   -1.3550   -5.1724    0.0000 C   0  0  0
    2.5214    4.5479    0.0000 C   0  0  0
   -0.0707    4.5479    0.0000 C   0  0  0
    5.3138   -5.1606    0.0000 C   0  0  0
    4.5597   -6.4567    0.0000 C   0  0  0
   -2.6628   -4.4183    0.0000 N   0  0  0
   -1.5317    4.1709    0.0000 C   0  0  0
   -0.4713    6.0089    0.0000 C   0  0  0
    1.2136    5.3138    0.0000 C   0  0  0
   -2.8277   -2.9220    0.0000 C   0  0  0
   -4.0413   -5.0192    0.0000 C   0  0  0
   -1.9323    5.6319    0.0000 O   0  0  0
    1.2018    6.8219    0.0000 C   0  0  0
   -4.3005   -2.6039    0.0000 C   0  0  0
   -5.0546   -3.8999    0.0000 C   0  0  0
    2.4036    7.7173    0.0000 N   0  0  0
   -0.0236    7.7173    0.0000 C   0  0  0
   -5.5259   -1.7084    0.0000 C   0  0  0
   -4.1591   -1.1075    0.0000 C   0  0  0
    1.9323    9.1548    0.0000 O   0  0  0
    0.4242    9.1548    0.0000 C   0  0  0
   -1.4610    7.2696    0.0000 C   0  0  0
  1  2  2
  2  3  1
  2  4  1
  3  5  1
  4  6  2
  4  7  1
  5  8  2
  5  9  1
  6 10  1
  7 11  2
  8 12  1
  9 13  2
 10 14  2
 10 15  1
 11 16  1
 12 17  2
 12 18  1
 15 19  1
 15 20  1
 16 21  1
 18 22  1
 18 23  1
 18 24  1
 21 25  1
 21 26  1
 22 27  1
 24 28  1
 25 29  1
 26 30  1
 28 31  2
 28 32  1
 29 33  1
 29 34  1
 31 35  1
 32 36  2
 32 37  1
 11 14  1
 13 17  1
 19 20  1
 23 27  1
 29 30  1
 33 34  1
 35 36  1
M  END
> <COMPOUND_NAMES>
Example 508 (Page No: 651)

> <Reference>
WO2019148005

> <IC50_range_nM>
<100

> <smiles>
Cc1conc1CC1(COC1)c1cccc(c1)NC(c1cc(CN2CCC3(CC3)C2)nc(C2CC2)n1)=O

$$$$
C20H25F3N6O2
  MOLSOFT 03092310482D

 31 33  0  0  1  0  0  0  0  0999 V2000
    0.0000   -0.0000    0.0000 F   0  0  0
   -0.0118   -1.4860    0.0000 C   0  0  0
    1.4742   -1.4742    0.0000 F   0  0  0
   -1.5213   -1.4742    0.0000 F   0  0  0
   -0.0236   -2.9719    0.0000 C   0  0  3
   -1.3327   -2.2172    0.0000 C   0  0  0
   -1.2501   -3.8446    0.0000 C   0  0  0
    1.1793   -3.8446    0.0000 C   0  0  0
   -1.3444   -0.7076    0.0000 O   0  0  0
   -2.6417   -2.9483    0.0000 N   0  0  0
   -0.8020   -5.2599    0.0000 N   0  0  0
    0.7076   -5.2599    0.0000 C   0  0  0
   -3.9508   -2.1936    0.0000 C   0  0  0
   -1.6982   -6.4628    0.0000 C   0  0  0
   -1.0968   -7.8190    0.0000 O   0  0  0
   -3.1960   -6.2977    0.0000 N   0  0  0
   -4.0923   -7.5006    0.0000 C   0  0  0
   -5.5901   -7.3355    0.0000 C   0  0  0
   -3.4908   -8.8568    0.0000 C   0  0  0
   -6.4864   -8.5384    0.0000 C   0  0  0
   -4.3871  -10.0598    0.0000 C   0  0  0
   -5.8849   -9.8947    0.0000 C   0  0  0
   -7.9841   -8.3733    0.0000 C   0  0  1
   -8.6092   -6.9935    0.0000 C   0  0  0
   -8.8804   -9.5762    0.0000 C   0  0  0
  -10.1069   -6.8284    0.0000 C   0  0  0
  -11.1212   -7.9252    0.0000 N   0  0  0
  -10.8617   -5.5193    0.0000 N   0  0  0
  -12.5010   -7.3001    0.0000 N   0  0  0
  -12.3359   -5.8141    0.0000 C   0  0  0
  -10.2603   -4.1395    0.0000 C   0  0  0
  1  2  1
  2  3  1
  2  4  1
  5  2  1
  5  6  1
  5  7  1
  5  8  1
  6  9  2
  6 10  1
  7 11  1
  8 12  1
 10 13  1
 11 14  1
 14 15  2
 14 16  1
 16 17  1
 17 18  2
 17 19  1
 18 20  1
 19 21  2
 20 22  2
 23 20  1
 23 24  1
 23 25  1  6  0
 24 26  1
 26 27  2
 26 28  1
 27 29  1
 28 30  1
 28 31  1
 11 12  1
 21 22  1
 29 30  2
M  END
> <COMPOUND_NAMES>
Compound 20 (R) (Page No: 56, Table No: 1)

> <Reference>
WO 2021/021761 A1

> <IC50_range_nM>
101-1000

> <smiles>
C[C@H](Cc1nncn1C)c1cccc(c1)NC(N1CCC(C1)(C(NC)=O)C(F)(F)F)=O

$$$$
C20H28N6O2
  MOLSOFT 03092310482D

 28 30  0  0  1  0  0  0  0  0999 V2000
    0.0000   -0.0000    0.0000 O   0  0  0
    0.3053    1.4797    0.0000 C   0  0  0
   -0.8221    2.4896    0.0000 N   0  0  0
    1.7146    1.9494    0.0000 N   0  0  0
   -2.3017    2.1843    0.0000 C   0  0  0
   -0.6811    3.9928    0.0000 C   0  0  0
    2.8185    0.9630    0.0000 C   0  0  0
   -3.0651    3.4879    0.0000 C   0  0  3
   -2.0669    4.6152    0.0000 C   0  0  0
    2.4896   -0.4932    0.0000 C   0  0  0
    4.2277    1.4445    0.0000 C   0  0  0
   -4.2864    4.3804    0.0000 C   0  0  0
   -4.4508    2.8889    0.0000 C   0  0  0
    3.5935   -1.4797    0.0000 C   0  0  0
    5.3316    0.4580    0.0000 C   0  0  0
   -4.1455    5.8835    0.0000 O   0  0  0
   -5.6722    3.7814    0.0000 N   0  0  0
    5.0028   -1.0100    0.0000 C   0  0  0
    3.2647   -2.9359    0.0000 C   0  0  1
   -6.8935    4.6740    0.0000 C   0  0  0
    1.8320   -3.3822    0.0000 C   0  0  0
    4.3686   -3.9224    0.0000 C   0  0  0
    1.5032   -4.8384    0.0000 C   0  0  0
    2.4896   -5.9423    0.0000 N   0  0  0
    0.1174   -5.4373    0.0000 N   0  0  0
    1.7263   -7.2341    0.0000 N   0  0  0
    0.2584   -6.9170    0.0000 C   0  0  0
   -1.1978   -4.6740    0.0000 C   0  0  0
  1  2  2
  2  3  1
  2  4  1
  3  5  1
  3  6  1
  4  7  1
  8  5  1
  6  9  1
  7 10  2
  7 11  1
  8 12  1
  8 13  1
 10 14  1
 11 15  2
 12 16  2
 12 17  1
 14 18  2
 19 14  1
 17 20  1
 19 21  1
 19 22  1  6  0
 21 23  1
 23 24  2
 23 25  1
 24 26  1
 25 27  1
 25 28  1
  8  9  1
 15 18  1
 26 27  2
M  END
> <COMPOUND_NAMES>
Compound 12 (R) (Page No: 56, Table No: 1)

> <Reference>
WO 2021/021761 A1

> <IC50_range_nM>
>5000

> <smiles>
C[C@H](Cc1nncn1C)c1cccc(c1)NC(N1CCC(C)(C1)C(NC)=O)=O

$$$$
C19H22F3N5O3
  MOLSOFT 03092310482D

 30 32  0  0  1  0  0  0  0  0999 V2000
    0.0000   -0.0000    0.0000 F   0  0  0
   -0.6314    1.3939    0.0000 C   0  0  0
    0.7387    2.0253    0.0000 F   0  0  0
   -1.2629    2.7878    0.0000 F   0  0  0
   -2.0253    0.7863    0.0000 C   0  0  3
   -1.2986    0.2621    0.0000 C   0  0  0
   -3.0499   -0.3217    0.0000 C   0  0  0
   -2.7878    2.1087    0.0000 C   0  0  0
    0.0715    0.8935    0.0000 O   0  0  0
   -1.4654   -1.2271    0.0000 O   0  0  0
   -4.4438    0.3098    0.0000 N   0  0  0
   -4.2770    1.8109    0.0000 C   0  0  0
   -5.7663   -0.4408    0.0000 C   0  0  0
   -5.7782   -1.9419    0.0000 O   0  0  0
   -7.0887    0.3336    0.0000 N   0  0  0
   -8.4111   -0.4170    0.0000 C   0  0  0
   -9.7335    0.3574    0.0000 C   0  0  0
   -8.4230   -1.9181    0.0000 C   0  0  0
  -11.0560   -0.3932    0.0000 C   0  0  0
   -9.7455   -2.6687    0.0000 C   0  0  0
  -11.0679   -1.8943    0.0000 C   0  0  0
  -12.3784    0.3812    0.0000 C   0  0  1
  -13.7008   -0.3693    0.0000 C   0  0  0
  -12.3903    1.9062    0.0000 C   0  0  0
  -15.0233    0.4051    0.0000 C   0  0  0
  -16.4172   -0.2025    0.0000 N   0  0  0
  -15.1900    1.9181    0.0000 N   0  0  0
  -17.4417    0.9293    0.0000 N   0  0  0
  -16.6793    2.2398    0.0000 C   0  0  0
  -14.0821    2.9427    0.0000 C   0  0  0
  1  2  1
  2  3  1
  2  4  1
  5  2  1
  5  6  1
  5  7  1
  5  8  1
  6  9  2
  6 10  1
  7 11  1
  8 12  1
 11 13  1
 13 14  2
 13 15  1
 15 16  1
 16 17  2
 16 18  1
 17 19  1
 18 20  2
 19 21  2
 22 19  1
 22 23  1
 22 24  1  1  0
 23 25  1
 25 26  2
 25 27  1
 26 28  1
 27 29  1
 27 30  1
 11 12  1
 20 21  1
 28 29  2
M  END
> <COMPOUND_NAMES>
Compound 15 (R) (Page No: 56, Table No: 1)

> <Reference>
WO 2021/021761 A1

> <IC50_range_nM>
1001-5000

> <smiles>
C[C@H](Cc1nncn1C)c1cccc(c1)NC(N1CCC(C1)(C(O)=O)C(F)(F)F)=O

$$$$
C20H24F3N5O3
  MOLSOFT 03092310482D

 31 33  0  0  1  0  0  0  0  0999 V2000
    0.0000   -0.0000    0.0000 F   0  0  0
   -0.0118   -1.4860    0.0000 C   0  0  0
    1.4742   -1.4742    0.0000 F   0  0  0
   -1.5213   -1.4742    0.0000 F   0  0  0
   -0.0236   -2.9719    0.0000 C   0  0  3
   -1.3327   -2.2172    0.0000 C   0  0  0
   -1.2501   -3.8446    0.0000 C   0  0  0
    1.1793   -3.8446    0.0000 C   0  0  0
   -1.3444   -0.7076    0.0000 O   0  0  0
   -2.6417   -2.9483    0.0000 O   0  0  0
   -0.8020   -5.2599    0.0000 N   0  0  0
    0.7076   -5.2599    0.0000 C   0  0  0
   -3.9508   -2.1936    0.0000 C   0  0  0
   -1.6982   -6.4628    0.0000 C   0  0  0
   -1.0968   -7.8190    0.0000 O   0  0  0
   -3.1960   -6.2977    0.0000 N   0  0  0
   -4.0923   -7.5006    0.0000 C   0  0  0
   -5.5901   -7.3355    0.0000 C   0  0  0
   -3.4908   -8.8568    0.0000 C   0  0  0
   -6.4864   -8.5384    0.0000 C   0  0  0
   -4.3871  -10.0598    0.0000 C   0  0  0
   -5.8849   -9.8947    0.0000 C   0  0  0
   -7.9841   -8.3733    0.0000 C   0  0  1
   -8.6092   -6.9935    0.0000 C   0  0  0
   -8.8804   -9.5762    0.0000 C   0  0  0
  -10.1069   -6.8284    0.0000 C   0  0  0
  -11.1212   -7.9252    0.0000 N   0  0  0
  -10.8617   -5.5193    0.0000 N   0  0  0
  -12.5010   -7.3001    0.0000 N   0  0  0
  -12.3359   -5.8141    0.0000 C   0  0  0
  -10.2603   -4.1395    0.0000 C   0  0  0
  1  2  1
  2  3  1
  2  4  1
  5  2  1
  5  6  1
  5  7  1
  5  8  1
  6  9  2
  6 10  1
  7 11  1
  8 12  1
 10 13  1
 11 14  1
 14 15  2
 14 16  1
 16 17  1
 17 18  2
 17 19  1
 18 20  1
 19 21  2
 20 22  2
 23 20  1
 23 24  1
 23 25  1  6  0
 24 26  1
 26 27  2
 26 28  1
 27 29  1
 28 30  1
 28 31  1
 11 12  1
 21 22  1
 29 30  2
M  END
> <COMPOUND_NAMES>
Compound 11 (R) (Page No: 56, Table No: 1)

> <Reference>
WO 2021/021761 A1

> <IC50_range_nM>
1001-5000

> <smiles>
C[C@H](Cc1nncn1C)c1cccc(c1)NC(N1CCC(C1)(C(=O)OC)C(F)(F)F)=O

$$$$
C19H27N5O2
  MOLSOFT 03092310482D

 26 28  0  0  1  0  0  0  0  0999 V2000
    0.0000   -0.0000    0.0000 O   0  0  0
   -0.0118    1.5074    0.0000 C   0  0  0
    1.2719    2.2729    0.0000 N   0  0  0
   -1.3190    2.2729    0.0000 N   0  0  0
    2.6262    1.6723    0.0000 C   0  0  0
    1.4132    3.7686    0.0000 C   0  0  0
   -2.6262    1.5310    0.0000 C   0  0  0
    3.6155    2.7911    0.0000 C   0  0  1
    2.8617    4.0865    0.0000 C   0  0  1
   -3.9334    2.2965    0.0000 C   0  0  0
   -2.6380    0.0471    0.0000 C   0  0  0
    5.0876    2.6498    0.0000 C   0  0  0
    3.4624    5.4644    0.0000 C   0  0  0
   -5.2407    1.5545    0.0000 C   0  0  0
   -3.9452   -0.6948    0.0000 C   0  0  0
    5.6882    1.2954    0.0000 O   0  0  0
   -5.2524    0.0707    0.0000 C   0  0  0
   -6.5479    2.3200    0.0000 C   0  0  1
   -7.8551    1.5781    0.0000 C   0  0  0
   -6.5596    3.8274    0.0000 C   0  0  0
   -9.1623    2.3436    0.0000 C   0  0  0
  -10.5402    1.7430    0.0000 N   0  0  0
   -9.3272    3.8392    0.0000 N   0  0  0
  -11.5530    2.8617    0.0000 N   0  0  0
  -10.7993    4.1572    0.0000 C   0  0  0
   -8.2319    4.8520    0.0000 C   0  0  0
  1  2  2
  2  3  1
  2  4  1
  3  5  1
  3  6  1
  4  7  1
  8  5  1
  9  6  1
  7 10  2
  7 11  1
  8 12  1  1  0
  9 13  1  6  0
 10 14  1
 11 15  2
 12 16  1
 14 17  2
 18 14  1
 18 19  1
 18 20  1  1  0
 19 21  1
 21 22  2
 21 23  1
 22 24  1
 23 25  1
 23 26  1
  8  9  1
 15 17  1
 24 25  2
M  END
> <COMPOUND_NAMES>
Compound 17 (Stereo) (Page No: 56, Table No: 1)

> <Reference>
WO 2021/021761 A1

> <IC50_range_nM>
1001-5000

> <smiles>
C[C@H](Cc1nncn1C)c1cccc(c1)NC(N1C[C@H](C)[C@H](C1)CO)=O

$$$$
C20H22F3N5O2
  MOLSOFT 03092310482D

 30 34  0  0  0  0  0  0  0  0999 V2000
    0.0000   -0.0000    0.0000 F   0  0  0
   -0.0118   -1.4854    0.0000 C   0  0  0
    1.4736   -1.4736    0.0000 F   0  0  0
   -1.5208   -1.4736    0.0000 F   0  0  0
   -0.0236   -2.9708    0.0000 C   0  0  3
   -1.2496   -3.8432    0.0000 C   0  0  3
    1.1789   -3.8432    0.0000 C   0  0  0
   -0.8016   -5.2579    0.0000 N   0  0  0
   -2.7586   -3.8314    0.0000 C   0  0  0
    0.7073   -5.2579    0.0000 C   0  0  0
   -2.0277   -6.1303    0.0000 C   0  0  0
   -3.2302   -5.2461    0.0000 N   0  0  0
   -2.0395   -7.6157    0.0000 O   0  0  0
   -4.6684   -5.6941    0.0000 C   0  0  0
   -5.7884   -4.6802    0.0000 C   0  0  0
   -4.9867   -7.1441    0.0000 C   0  0  0
   -7.2266   -5.1282    0.0000 C   0  0  0
   -6.4250   -7.5921    0.0000 C   0  0  0
   -7.5449   -6.5782    0.0000 C   0  0  0
   -8.3466   -4.1143    0.0000 C   0  0  0
   -9.8556   -4.1851    0.0000 C   0  0  0
   -8.4409   -2.6054    0.0000 C   0  0  0
   -6.9319   -3.6428    0.0000 C   0  0  0
   -9.9499   -2.6761    0.0000 O   0  0  0
   -6.6372   -2.1692    0.0000 C   0  0  0
   -5.2815   -1.5444    0.0000 N   0  0  0
   -7.6510   -1.0492    0.0000 N   0  0  0
   -5.4465   -0.0472    0.0000 N   0  0  0
   -6.9201    0.2594    0.0000 C   0  0  0
   -9.1482   -1.1907    0.0000 C   0  0  0
  1  2  1
  2  3  1
  2  4  1
  5  2  1
  5  6  1
  5  7  1
  6  8  1
  6  9  1
  7 10  1
  8 11  1
  9 12  1
 11 13  2
 12 14  1
 14 15  2
 14 16  1
 15 17  1
 16 18  2
 17 19  2
 17 20  1
 20 21  1
 20 22  1
 20 23  1
 21 24  1
 23 25  1
 25 26  2
 25 27  1
 26 28  1
 27 29  1
 27 30  1
  8 10  1
 11 12  1
 18 19  1
 22 24  1
 28 29  2
M  END
> <COMPOUND_NAMES>
Compound 32 (Page No: 57, Table No: 1)

> <Reference>
WO 2021/021761 A1

> <IC50_range_nM>
1001-5000

> <smiles>
Cn1cnnc1CC1(COC1)c1cccc(c1)N1CC2C(CCN2C1=O)C(F)(F)F

$$$$
C19H22N6O
  MOLSOFT 03092310482D

 26 29  0  0  1  0  0  0  0  0999 V2000
    0.0000   -0.0000    0.0000 O   0  0  0
    1.2848   -0.7308    0.0000 C   0  0  0
    2.5696    0.0236    0.0000 N   0  0  0
    1.2730   -2.2160    0.0000 C   0  0  0
    2.5579    1.5324    0.0000 C   0  0  0
    2.4753   -3.0883    0.0000 N   0  0  0
    0.0471   -3.0883    0.0000 C   0  0  0
    1.2495    2.2867    0.0000 C   0  0  0
    3.8427    2.2867    0.0000 C   0  0  0
    2.0038   -4.5028    0.0000 N   0  0  0
    0.4951   -4.5028    0.0000 C   0  0  0
   -1.4616   -3.0765    0.0000 C   0  0  0
    1.2377    3.7955    0.0000 C   0  0  0
    3.8309    3.7955    0.0000 C   0  0  0
   -0.7308   -5.3750    0.0000 C   0  0  0
   -1.9331   -4.4910    0.0000 C   0  0  0
    2.5225    4.5499    0.0000 C   0  0  0
   -0.0707    4.5499    0.0000 C   0  0  1
   -1.3791    3.8191    0.0000 C   0  0  0
   -0.0825    6.0587    0.0000 C   0  0  0
   -2.6875    4.5735    0.0000 C   0  0  0
   -4.0666    3.9723    0.0000 N   0  0  0
   -2.8525    6.0705    0.0000 N   0  0  0
   -5.0803    5.0921    0.0000 N   0  0  0
   -4.3260    6.3887    0.0000 C   0  0  0
   -1.7563    7.0842    0.0000 C   0  0  0
  1  2  2
  2  3  1
  2  4  1
  3  5  1
  4  6  2
  4  7  1
  5  8  2
  5  9  1
  6 10  1
  7 11  2
  7 12  1
  8 13  1
  9 14  2
 11 15  1
 12 16  1
 13 17  2
 18 13  1
 18 19  1
 18 20  1  1  0
 19 21  1
 21 22  2
 21 23  1
 22 24  1
 23 25  1
 23 26  1
 10 11  1
 14 17  1
 15 16  1
 24 25  2
M  END
> <COMPOUND_NAMES>
Example 313 (R) (Page No: 517)

> <Reference>
WO2019148005

> <IC50_range_nM>
101-300

> <smiles>
C[C@H](Cc1nncn1C)c1cccc(c1)NC(c1c2CCCc2[nH]n1)=O

$$$$
C20H24N6O
  MOLSOFT 03092310482D

 27 30  0  0  1  0  0  0  0  0999 V2000
    0.0000   -0.0000    0.0000 O   0  0  0
    1.2867   -0.7319    0.0000 C   0  0  0
    2.5733    0.0236    0.0000 N   0  0  0
    1.2749   -2.2192    0.0000 C   0  0  0
    2.5615    1.5346    0.0000 C   0  0  0
    0.0472   -3.0927    0.0000 N   0  0  0
    2.4789   -3.0927    0.0000 C   0  0  0
    1.2513    2.2900    0.0000 C   0  0  0
    3.8482    2.2900    0.0000 C   0  0  0
    0.4958   -4.5093    0.0000 N   0  0  0
    2.0067   -4.5093    0.0000 C   0  0  0
    3.9663   -3.0809    0.0000 C   0  0  0
    1.2395    3.8010    0.0000 C   0  0  0
    3.8364    3.8010    0.0000 C   0  0  0
    3.2108   -5.3828    0.0000 C   0  0  3
    4.4148   -4.4975    0.0000 C   0  0  0
    2.5261    4.5565    0.0000 C   0  0  0
   -0.0708    4.5565    0.0000 C   0  0  1
    3.1990   -6.8701    0.0000 C   0  0  0
   -1.3811    3.8246    0.0000 C   0  0  0
   -0.0826    6.0674    0.0000 C   0  0  0
   -2.6914    4.5801    0.0000 C   0  0  0
   -4.0725    3.9781    0.0000 N   0  0  0
   -2.8566    6.0792    0.0000 N   0  0  0
   -5.0877    5.0995    0.0000 N   0  0  0
   -4.3322    6.3979    0.0000 C   0  0  0
   -1.7588    7.0944    0.0000 C   0  0  0
  1  2  2
  2  3  1
  2  4  1
  3  5  1
  4  6  1
  4  7  2
  5  8  2
  5  9  1
  6 10  1
  7 11  1
  7 12  1
  8 13  1
  9 14  2
 15 11  1
 12 16  1
 13 17  2
 18 13  1
 15 19  1
 18 20  1
 18 21  1  1  0
 20 22  1
 22 23  2
 22 24  1
 23 25  1
 24 26  1
 24 27  1
 10 11  2
 14 17  1
 15 16  1
 25 26  2
M  END
> <COMPOUND_NAMES>
Example 323 (R) (Page No: 523)

> <Reference>
WO2019148005

> <IC50_range_nM>
101-300

> <smiles>
CC1CCc2c1n[nH]c2C(Nc1cccc(c1)[C@H](C)Cc1nncn1C)=O

$$$$
C20H24N6O
  MOLSOFT 03092310482D

 27 30  0  0  1  0  0  0  0  0999 V2000
    0.0000   -0.0000    0.0000 O   0  0  0
    1.2870   -0.7439    0.0000 C   0  0  0
    2.5740    0.0118    0.0000 N   0  0  0
    1.2752   -2.2316    0.0000 C   0  0  0
    2.5622    1.5232    0.0000 C   0  0  0
    0.0472   -3.1054    0.0000 N   0  0  0
    2.4796   -3.1054    0.0000 C   0  0  0
    1.2516    2.2788    0.0000 C   0  0  0
    3.8492    2.2788    0.0000 C   0  0  0
    0.4959   -4.5223    0.0000 N   0  0  0
    2.0073   -4.5223    0.0000 C   0  0  0
    3.9319   -2.7866    0.0000 C   0  0  0
    1.2398    3.7902    0.0000 C   0  0  0
    3.8374    3.7902    0.0000 C   0  0  0
    2.9991   -5.6204    0.0000 C   0  0  0
    4.9237   -3.8847    0.0000 C   0  0  0
    2.5268    4.5459    0.0000 C   0  0  0
   -0.0708    4.5459    0.0000 C   0  0  1
    4.4514   -5.3016    0.0000 C   0  0  0
   -1.3815    3.8138    0.0000 C   0  0  0
   -0.0827    6.0572    0.0000 C   0  0  0
   -2.6921    4.5695    0.0000 C   0  0  0
   -4.0736    3.9673    0.0000 N   0  0  0
   -2.8574    6.0690    0.0000 N   0  0  0
   -5.0890    5.0890    0.0000 N   0  0  0
   -4.3333    6.3878    0.0000 C   0  0  0
   -1.7593    7.0845    0.0000 C   0  0  0
  1  2  2
  2  3  1
  2  4  1
  3  5  1
  4  6  1
  4  7  2
  5  8  2
  5  9  1
  6 10  1
  7 11  1
  7 12  1
  8 13  1
  9 14  2
 11 15  1
 12 16  1
 13 17  2
 18 13  1
 15 19  1
 18 20  1
 18 21  1  1  0
 20 22  1
 22 23  2
 22 24  1
 23 25  1
 24 26  1
 24 27  1
 10 11  2
 14 17  1
 16 19  1
 25 26  2
M  END
> <COMPOUND_NAMES>
Example 327 (R) (Page No: 525)

> <Reference>
WO2019148005

> <IC50_range_nM>
301-1000

> <smiles>
C[C@H](Cc1nncn1C)c1cccc(c1)NC(c1c2CCCCc2n[nH]1)=O

$$$$
C20H22N6O3
  MOLSOFT 03092310482D

 29 33  0  0  0  0  0  0  0  0999 V2000
    0.0000   -0.0000    0.0000 O   0  0  0
    1.2852   -0.7428    0.0000 C   0  0  0
    2.5704    0.0118    0.0000 N   0  0  0
    1.2734   -2.2285    0.0000 C   0  0  0
    2.5586    1.5210    0.0000 C   0  0  0
    0.0472   -3.1010    0.0000 N   0  0  0
    2.4761   -3.1010    0.0000 C   0  0  0
    1.2498    2.2756    0.0000 C   0  0  0
    3.8438    2.2756    0.0000 C   0  0  0
    0.4952   -4.5159    0.0000 N   0  0  0
    3.9264   -2.7827    0.0000 O   0  0  0
    2.0045   -4.5159    0.0000 C   0  0  0
    1.2380    3.7849    0.0000 C   0  0  0
    3.8320    3.7849    0.0000 C   0  0  0
    4.9168   -3.8792    0.0000 C   0  0  0
    2.9949   -5.6125    0.0000 C   0  0  0
    2.5233    4.5395    0.0000 C   0  0  0
   -0.0707    4.5395    0.0000 C   0  0  0
    4.4452   -5.2941    0.0000 C   0  0  0
   -1.5328    4.1622    0.0000 C   0  0  0
   -0.4716    6.0016    0.0000 C   0  0  0
    1.2145    5.2941    0.0000 C   0  0  0
   -1.9337    5.6243    0.0000 O   0  0  0
    1.2027    6.8034    0.0000 C   0  0  0
    2.4053    7.6995    0.0000 N   0  0  0
   -0.0236    7.6995    0.0000 N   0  0  0
    1.9337    9.1379    0.0000 N   0  0  0
    0.4245    9.1379    0.0000 C   0  0  0
   -1.4621    7.2514    0.0000 C   0  0  0
  1  2  2
  2  3  1
  2  4  1
  3  5  1
  4  6  1
  4  7  2
  5  8  2
  5  9  1
  6 10  1
  7 11  1
  7 12  1
  8 13  1
  9 14  2
 11 15  1
 12 16  1
 13 17  2
 13 18  1
 15 19  1
 18 20  1
 18 21  1
 18 22  1
 20 23  1
 22 24  1
 24 25  2
 24 26  1
 25 27  1
 26 28  1
 26 29  1
 10 12  2
 14 17  1
 16 19  1
 21 23  1
 27 28  2
M  END
> <COMPOUND_NAMES>
Example 343 (Page No: 533)

> <Reference>
WO2019148005

> <IC50_range_nM>
<100

> <smiles>
Cn1cnnc1CC1(COC1)c1cccc(c1)NC(c1c2c(CCCO2)n[nH]1)=O

$$$$
C19H18F3N5O
  MOLSOFT 03092310482D

 28 30  0  0  1  0  0  0  0  0999 V2000
    0.0000   -0.0000    0.0000 F   0  0  0
    0.7311   -1.2853    0.0000 C   0  0  0
   -0.5778   -2.0163    0.0000 F   0  0  0
    1.4621   -2.5705    0.0000 F   0  0  0
    2.0163   -0.5306    0.0000 C   0  0  0
    2.0046    0.9787    0.0000 N   0  0  0
    3.3016   -1.2617    0.0000 C   0  0  0
    3.2898    1.7333    0.0000 C   0  0  0
    4.5869   -0.5070    0.0000 C   0  0  0
    3.2780    3.2427    0.0000 C   0  0  0
    4.5751    1.0023    0.0000 C   0  0  0
    1.9692    3.9973    0.0000 O   0  0  0
    4.5633    3.9973    0.0000 N   0  0  0
    4.5515    5.5066    0.0000 C   0  0  0
    3.2427    6.2613    0.0000 C   0  0  0
    5.8368    6.2613    0.0000 C   0  0  0
    3.2309    7.7706    0.0000 C   0  0  0
    5.8250    7.7706    0.0000 C   0  0  0
    4.5161    8.5252    0.0000 C   0  0  0
    1.9220    8.5252    0.0000 C   0  0  1
    0.6132    7.7942    0.0000 C   0  0  0
    1.9102   10.0346    0.0000 C   0  0  0
   -0.6957    8.5488    0.0000 N   0  0  0
   -2.0753    7.9475    0.0000 N   0  0  0
   -0.8608   10.0463    0.0000 C   0  0  0
   -3.0894    9.0676    0.0000 N   0  0  0
   -2.3347   10.3647    0.0000 C   0  0  0
    0.2358   11.0604    0.0000 C   0  0  0
  1  2  1
  2  3  1
  2  4  1
  2  5  1
  5  6  2
  5  7  1
  6  8  1
  7  9  2
  8 10  1
  8 11  2
 10 12  2
 10 13  1
 13 14  1
 14 15  2
 14 16  1
 15 17  1
 16 18  2
 17 19  2
 20 17  1
 20 21  1
 20 22  1  1  0
 21 23  1
 23 24  1
 23 25  1
 24 26  2
 25 27  2
 25 28  1
  9 11  1
 18 19  1
 26 27  1
M  END
> <COMPOUND_NAMES>
Example 312a (S) (Page No: 516)

> <Reference>
WO2019148005

> <IC50_range_nM>
101-300

> <smiles>
Cc1cnnn1C[C@@H](C)c1cccc(c1)NC(c1cccc(C(F)(F)F)n1)=O

$$$$
C19H18F3N5O
  MOLSOFT 03092310482D

 28 30  0  0  0  0  0  0  0  0999 V2000
    0.0000   -0.0000    0.0000 F   0  0  0
    0.7291    1.3053    0.0000 C   0  0  0
    2.0109    0.5762    0.0000 F   0  0  0
    1.4582    2.6106    0.0000 F   0  0  0
   -0.5762    2.0579    0.0000 C   0  0  0
   -0.5880    3.5631    0.0000 N   0  0  0
   -1.8815    1.3288    0.0000 C   0  0  0
   -1.8933    4.3157    0.0000 C   0  0  0
   -3.1868    2.0814    0.0000 C   0  0  0
   -1.9050    5.8209    0.0000 C   0  0  0
   -3.1986    3.5866    0.0000 C   0  0  0
   -3.2103    6.5735    0.0000 O   0  0  0
   -0.6232    6.5735    0.0000 N   0  0  0
   -0.6350    8.0787    0.0000 C   0  0  0
   -1.9403    8.8313    0.0000 C   0  0  0
    0.6468    8.8313    0.0000 C   0  0  0
   -1.9521   10.3365    0.0000 C   0  0  0
    0.6350   10.3365    0.0000 C   0  0  0
   -0.6703   11.0891    0.0000 C   0  0  0
   -3.2574   11.0891    0.0000 C   0  0  3
   -4.5626   10.3600    0.0000 C   0  0  0
   -3.2691   12.5943    0.0000 C   0  0  0
   -5.8679   11.1126    0.0000 N   0  0  0
   -7.2438   10.5129    0.0000 N   0  0  0
   -6.0326   12.6061    0.0000 C   0  0  0
   -8.2551   11.6300    0.0000 N   0  0  0
   -7.5025   12.9236    0.0000 C   0  0  0
   -4.9389   13.6174    0.0000 C   0  0  0
  1  2  1
  2  3  1
  2  4  1
  2  5  1
  5  6  2
  5  7  1
  6  8  1
  7  9  2
  8 10  1
  8 11  2
 10 12  2
 10 13  1
 13 14  1
 14 15  2
 14 16  1
 15 17  1
 16 18  2
 17 19  2
 20 17  1
 20 21  1
 20 22  1
 21 23  1
 23 24  1
 23 25  1
 24 26  2
 25 27  2
 25 28  1
  9 11  1
 18 19  1
 26 27  1
M  END
> <COMPOUND_NAMES>
Example 218 (+/-) (Page No: 453)

> <Reference>
WO2019148005

> <IC50_range_nM>
301-1000

> <smiles>
CC(Cn1c(C)cnn1)c1cccc(c1)NC(c1cccc(C(F)(F)F)n1)=O

$$$$
C19H18F3N5O
  MOLSOFT 03092310482D

 28 30  0  0  1  0  0  0  0  0999 V2000
    0.0000   -0.0000    0.0000 F   0  0  0
    0.7311   -1.2853    0.0000 C   0  0  0
   -0.5778   -2.0163    0.0000 F   0  0  0
    1.4621   -2.5705    0.0000 F   0  0  0
    2.0163   -0.5306    0.0000 C   0  0  0
    2.0046    0.9787    0.0000 N   0  0  0
    3.3016   -1.2617    0.0000 C   0  0  0
    3.2898    1.7333    0.0000 C   0  0  0
    4.5869   -0.5070    0.0000 C   0  0  0
    3.2780    3.2427    0.0000 C   0  0  0
    4.5751    1.0023    0.0000 C   0  0  0
    1.9692    3.9973    0.0000 O   0  0  0
    4.5633    3.9973    0.0000 N   0  0  0
    4.5515    5.5066    0.0000 C   0  0  0
    3.2427    6.2613    0.0000 C   0  0  0
    5.8368    6.2613    0.0000 C   0  0  0
    3.2309    7.7706    0.0000 C   0  0  0
    5.8250    7.7706    0.0000 C   0  0  0
    4.5161    8.5252    0.0000 C   0  0  0
    1.9220    8.5252    0.0000 C   0  0  2
    0.6132    7.7942    0.0000 C   0  0  0
    1.9102   10.0346    0.0000 C   0  0  0
   -0.6957    8.5488    0.0000 N   0  0  0
   -2.0753    7.9475    0.0000 N   0  0  0
   -0.8608   10.0463    0.0000 C   0  0  0
   -3.0894    9.0676    0.0000 N   0  0  0
   -2.3347   10.3647    0.0000 C   0  0  0
    0.2358   11.0604    0.0000 C   0  0  0
  1  2  1
  2  3  1
  2  4  1
  2  5  1
  5  6  2
  5  7  1
  6  8  1
  7  9  2
  8 10  1
  8 11  2
 10 12  2
 10 13  1
 13 14  1
 14 15  2
 14 16  1
 15 17  1
 16 18  2
 17 19  2
 20 17  1
 20 21  1
 20 22  1  6  0
 21 23  1
 23 24  1
 23 25  1
 24 26  2
 25 27  2
 25 28  1
  9 11  1
 18 19  1
 26 27  1
M  END
> <COMPOUND_NAMES>
Example 312b (R) (Page No: 516)

> <Reference>
WO2019148005

> <IC50_range_nM>
1001-3000

> <smiles>
Cc1cnnn1C[C@H](C)c1cccc(c1)NC(c1cccc(C(F)(F)F)n1)=O

$$$$
C20H19F3N4O
  MOLSOFT 03092310482D

 28 30  0  0  0  0  0  0  0  0999 V2000
    0.0000   -0.0000    0.0000 F   0  0  0
    0.7291    1.3053    0.0000 C   0  0  0
    2.0109    0.5762    0.0000 F   0  0  0
    1.4582    2.6106    0.0000 F   0  0  0
   -0.5762    2.0579    0.0000 C   0  0  0
   -0.5880    3.5631    0.0000 N   0  0  0
   -1.8815    1.3288    0.0000 C   0  0  0
   -1.8933    4.3157    0.0000 C   0  0  0
   -3.1868    2.0814    0.0000 C   0  0  0
   -1.9050    5.8209    0.0000 C   0  0  0
   -3.1986    3.5866    0.0000 C   0  0  0
   -3.2103    6.5735    0.0000 O   0  0  0
   -0.6232    6.5735    0.0000 N   0  0  0
   -0.6350    8.0787    0.0000 C   0  0  0
   -1.9403    8.8313    0.0000 C   0  0  0
    0.6468    8.8313    0.0000 C   0  0  0
   -1.9521   10.3365    0.0000 C   0  0  0
    0.6350   10.3365    0.0000 C   0  0  0
   -0.6703   11.0891    0.0000 C   0  0  0
   -3.2574   11.0891    0.0000 C   0  0  3
   -4.5626   10.3600    0.0000 C   0  0  0
   -3.2691   12.5943    0.0000 C   0  0  0
   -5.8679   11.1126    0.0000 N   0  0  0
   -7.2438   10.5129    0.0000 N   0  0  0
   -6.0326   12.6061    0.0000 C   0  0  0
   -8.2551   11.6300    0.0000 C   0  0  0
   -7.5025   12.9236    0.0000 C   0  0  0
   -4.9389   13.6174    0.0000 C   0  0  0
  1  2  1
  2  3  1
  2  4  1
  2  5  1
  5  6  2
  5  7  1
  6  8  1
  7  9  2
  8 10  1
  8 11  2
 10 12  2
 10 13  1
 13 14  1
 14 15  2
 14 16  1
 15 17  1
 16 18  2
 17 19  2
 20 17  1
 20 21  1
 20 22  1
 21 23  1
 23 24  1
 23 25  1
 24 26  2
 25 27  2
 25 28  1
  9 11  1
 18 19  1
 26 27  1
M  END
> <COMPOUND_NAMES>
Example 215 (+/-) (Page No: 450)

> <Reference>
WO2019148005

> <IC50_range_nM>
301-1000

> <smiles>
CC(Cn1c(C)ccn1)c1cccc(c1)NC(c1cccc(C(F)(F)F)n1)=O

$$$$
C20H19F3N4O
  MOLSOFT 03092310482D

 28 30  0  0  0  0  0  0  0  0999 V2000
    0.0000   -0.0000    0.0000 F   0  0  0
    0.7287    1.3047    0.0000 C   0  0  0
    2.0099    0.5759    0.0000 F   0  0  0
    1.4575    2.6094    0.0000 F   0  0  0
   -0.5759    2.0569    0.0000 C   0  0  0
   -0.5877    3.5614    0.0000 N   0  0  0
   -1.8806    1.3282    0.0000 C   0  0  0
   -1.8924    4.3137    0.0000 C   0  0  0
   -3.1853    2.0804    0.0000 C   0  0  0
   -1.9041    5.8182    0.0000 C   0  0  0
   -3.1971    3.5850    0.0000 C   0  0  0
   -3.2088    6.5705    0.0000 O   0  0  0
   -0.6230    6.5705    0.0000 N   0  0  0
   -0.6347    8.0750    0.0000 C   0  0  0
   -1.9394    8.8272    0.0000 C   0  0  0
    0.6465    8.8272    0.0000 C   0  0  0
   -1.9512   10.3317    0.0000 C   0  0  0
    0.6347   10.3317    0.0000 C   0  0  0
   -0.6700   11.0840    0.0000 C   0  0  0
   -3.2558   11.0840    0.0000 C   0  0  3
   -4.5605   10.3552    0.0000 C   0  0  0
   -3.2676   12.5885    0.0000 C   0  0  0
   -5.8652   11.1075    0.0000 N   0  0  0
   -6.0298   12.6002    0.0000 N   0  0  0
   -7.2404   10.5080    0.0000 C   0  0  0
   -7.4990   12.9176    0.0000 C   0  0  0
   -8.2513   11.6246    0.0000 C   0  0  0
   -8.1220   14.2928    0.0000 C   0  0  0
  1  2  1
  2  3  1
  2  4  1
  2  5  1
  5  6  2
  5  7  1
  6  8  1
  7  9  2
  8 10  1
  8 11  2
 10 12  2
 10 13  1
 13 14  1
 14 15  2
 14 16  1
 15 17  1
 16 18  2
 17 19  2
 20 17  1
 20 21  1
 20 22  1
 21 23  1
 23 24  1
 23 25  1
 24 26  2
 25 27  2
 26 28  1
  9 11  1
 18 19  1
 26 27  1
M  END
> <COMPOUND_NAMES>
Example 216 (+/-) (Page No: 450)

> <Reference>
WO2019148005

> <IC50_range_nM>
3001-10000

> <smiles>
CC(Cn1ccc(C)n1)c1cccc(c1)NC(c1cccc(C(F)(F)F)n1)=O

$$$$
C18H17F3N6O
  MOLSOFT 03092310482D

 28 30  0  0  0  0  0  0  0  0999 V2000
    0.0000   -0.0000    0.0000 F   0  0  0
    0.7291    1.3053    0.0000 C   0  0  0
    2.0109    0.5762    0.0000 F   0  0  0
    1.4582    2.6106    0.0000 F   0  0  0
   -0.5762    2.0579    0.0000 C   0  0  0
   -0.5880    3.5631    0.0000 N   0  0  0
   -1.8815    1.3288    0.0000 C   0  0  0
   -1.8933    4.3157    0.0000 C   0  0  0
   -3.1868    2.0814    0.0000 C   0  0  0
   -1.9050    5.8209    0.0000 C   0  0  0
   -3.1986    3.5866    0.0000 C   0  0  0
   -3.2103    6.5735    0.0000 O   0  0  0
   -0.6232    6.5735    0.0000 N   0  0  0
   -0.6350    8.0787    0.0000 C   0  0  0
   -1.9403    8.8313    0.0000 C   0  0  0
    0.6468    8.8313    0.0000 C   0  0  0
   -1.9521   10.3365    0.0000 C   0  0  0
    0.6350   10.3365    0.0000 C   0  0  0
   -0.6703   11.0891    0.0000 C   0  0  0
   -3.2574   11.0891    0.0000 C   0  0  3
   -4.5626   10.3600    0.0000 C   0  0  0
   -3.2691   12.5943    0.0000 C   0  0  0
   -5.8679   11.1126    0.0000 N   0  0  0
   -7.2438   10.5129    0.0000 N   0  0  0
   -6.0326   12.6061    0.0000 C   0  0  0
   -8.2551   11.6300    0.0000 N   0  0  0
   -7.5025   12.9236    0.0000 N   0  0  0
   -4.9389   13.6174    0.0000 C   0  0  0
  1  2  1
  2  3  1
  2  4  1
  2  5  1
  5  6  2
  5  7  1
  6  8  1
  7  9  2
  8 10  1
  8 11  2
 10 12  2
 10 13  1
 13 14  1
 14 15  2
 14 16  1
 15 17  1
 16 18  2
 17 19  2
 20 17  1
 20 21  1
 20 22  1
 21 23  1
 23 24  1
 23 25  1
 24 26  2
 25 27  2
 25 28  1
  9 11  1
 18 19  1
 26 27  1
M  END
> <COMPOUND_NAMES>
Example 217 (+/-) (Page No: 451)

> <Reference>
WO2019148005

> <IC50_range_nM>
>10000

> <smiles>
CC(Cn1c(C)nnn1)c1cccc(c1)NC(c1cccc(C(F)(F)F)n1)=O

$$$$
C18H16F3N5O2
  MOLSOFT 03092310482D

 28 30  0  0  0  0  0  0  0  0999 V2000
    0.0000   -0.0000    0.0000 F   0  0  0
    0.7291    1.3053    0.0000 C   0  0  0
    2.0109    0.5762    0.0000 F   0  0  0
    1.4582    2.6106    0.0000 F   0  0  0
   -0.5762    2.0579    0.0000 C   0  0  0
   -0.5880    3.5631    0.0000 N   0  0  0
   -1.8815    1.3288    0.0000 C   0  0  0
   -1.8933    4.3157    0.0000 C   0  0  0
   -3.1868    2.0814    0.0000 C   0  0  0
   -1.9050    5.8209    0.0000 C   0  0  0
   -3.1986    3.5866    0.0000 C   0  0  0
   -3.2103    6.5735    0.0000 O   0  0  0
   -0.6232    6.5735    0.0000 N   0  0  0
   -0.6350    8.0787    0.0000 C   0  0  0
   -1.9403    8.8313    0.0000 C   0  0  0
    0.6468    8.8313    0.0000 C   0  0  0
   -1.9521   10.3365    0.0000 C   0  0  0
    0.6350   10.3365    0.0000 C   0  0  0
   -0.6703   11.0891    0.0000 C   0  0  0
   -3.2574   11.0891    0.0000 C   0  0  3
   -4.5626   10.3600    0.0000 C   0  0  0
   -3.2691   12.5943    0.0000 C   0  0  0
   -5.8679   11.1126    0.0000 N   0  0  0
   -7.2438   10.5129    0.0000 N   0  0  0
   -6.0326   12.6061    0.0000 C   0  0  0
   -8.2551   11.6300    0.0000 C   0  0  0
   -4.9389   13.6174    0.0000 O   0  0  0
   -7.5025   12.9236    0.0000 N   0  0  0
  1  2  1
  2  3  1
  2  4  1
  2  5  1
  5  6  2
  5  7  1
  6  8  1
  7  9  2
  8 10  1
  8 11  2
 10 12  2
 10 13  1
 13 14  1
 14 15  2
 14 16  1
 15 17  1
 16 18  2
 17 19  2
 20 17  1
 20 21  1
 20 22  1
 21 23  1
 23 24  1
 23 25  1
 24 26  1
 25 27  2
 25 28  1
  9 11  1
 18 19  1
 26 28  2
M  END
> <COMPOUND_NAMES>
Example 219 (+/-) (Page No: 454)

> <Reference>
WO2019148005

> <IC50_range_nM>
3001-10000

> <smiles>
CC(CN1C(N=CN1)=O)c1cccc(c1)NC(c1cccc(C(F)(F)F)n1)=O

$$$$
C20H21N5O2S
  MOLSOFT 03092310482D

 28 31  0  0  1  0  0  0  0  0999 V2000
    0.0000   -0.0000    0.0000 S   0  0  0
   -1.3123    0.7685    0.0000 C   0  0  0
    1.2886    0.7685    0.0000 C   0  0  2
   -2.6955    0.1655    0.0000 N   0  0  0
   -1.4778    2.2699    0.0000 N   0  0  0
    2.5773    0.0236    0.0000 C   0  0  0
    1.2768    2.2817    0.0000 C   0  0  0
   -3.7122    1.2886    0.0000 N   0  0  0
   -2.9556    2.5891    0.0000 C   0  0  0
   -0.3783    3.2866    0.0000 C   0  0  0
    3.8659    0.7921    0.0000 C   0  0  0
    2.5655   -1.4660    0.0000 C   0  0  0
    5.1546    0.0473    0.0000 C   0  0  0
    3.8541   -2.2108    0.0000 C   0  0  0
    6.4432    0.8157    0.0000 N   0  0  0
    5.1428   -1.4423    0.0000 C   0  0  0
    7.7319    0.0709    0.0000 C   0  0  0
    7.7201   -1.4187    0.0000 O   0  0  0
    9.0205    0.8394    0.0000 N   0  0  0
    9.1624    2.3408    0.0000 C   0  0  0
   10.3801    0.2364    0.0000 C   0  0  0
   10.6166    2.6601    0.0000 C   0  0  0
   11.3732    1.3596    0.0000 C   0  0  0
   11.3495    3.9723    0.0000 C   0  0  0
   12.8628    1.3714    0.0000 C   0  0  0
   10.5929    5.2846    0.0000 O   0  0  0
   12.8392    3.9842    0.0000 C   0  0  0
   13.5958    2.6837    0.0000 C   0  0  0
  1  2  1
  3  1  1  1  0
  2  4  2
  2  5  1
  3  6  1
  3  7  1
  4  8  1
  5  9  1
  5 10  1
  6 11  2
  6 12  1
 11 13  1
 12 14  2
 13 15  1
 13 16  2
 15 17  1
 17 18  2
 17 19  1
 19 20  1
 19 21  1
 20 22  1
 21 23  1
 22 24  1
 23 25  1
 24 26  1
 24 27  2
 25 28  2
  8  9  2
 14 16  1
 22 23  2
 27 28  1
M  END
> <COMPOUND_NAMES>
Compound 45 (S) (Page No: 58, Table No: 1)

> <Reference>
WO 2021/021761 A1

> <IC50_range_nM>
101-1000

> <smiles>
C[C@@H](c1cccc(c1)NC(N1Cc2cccc(c2C1)O)=O)Sc1nncn1C

$$$$
C18H19N7OS
  MOLSOFT 03092310482D

 27 30  0  0  1  0  0  0  0  0999 V2000
    0.0000   -0.0000    0.0000 S   0  0  0
   -1.3127    0.7687    0.0000 C   0  0  0
    1.2891    0.7687    0.0000 C   0  0  2
   -2.6964    0.1656    0.0000 N   0  0  0
   -1.4783    2.2707    0.0000 N   0  0  0
    2.5781    0.0237    0.0000 C   0  0  0
    1.2772    2.2825    0.0000 C   0  0  0
   -3.7135    1.2891    0.0000 N   0  0  0
   -2.9566    2.5900    0.0000 C   0  0  0
   -0.3784    3.2877    0.0000 C   0  0  0
    3.8672    0.7924    0.0000 C   0  0  0
    2.5663   -1.4665    0.0000 C   0  0  0
    5.1563    0.0473    0.0000 C   0  0  0
    3.8554   -2.2115    0.0000 C   0  0  0
    6.4454    0.8160    0.0000 N   0  0  0
    5.1445   -1.4428    0.0000 C   0  0  0
    7.7344    0.0710    0.0000 C   0  0  0
    7.7226   -1.4192    0.0000 O   0  0  0
    9.0235    0.8397    0.0000 N   0  0  0
   10.3835    0.2365    0.0000 C   0  0  0
    9.1654    2.3416    0.0000 C   0  0  0
   11.3769    1.3600    0.0000 C   0  0  0
   10.6200    2.6609    0.0000 C   0  0  0
   12.8671    1.3719    0.0000 N   0  0  0
   11.3533    3.9736    0.0000 N   0  0  0
   13.6003    2.6846    0.0000 C   0  0  0
   12.8434    3.9855    0.0000 C   0  0  0
  1  2  1
  3  1  1  1  0
  2  4  2
  2  5  1
  3  6  1
  3  7  1
  4  8  1
  5  9  1
  5 10  1
  6 11  2
  6 12  1
 11 13  1
 12 14  2
 13 15  1
 13 16  2
 15 17  1
 17 18  2
 17 19  1
 19 20  1
 19 21  1
 20 22  1
 21 23  1
 22 24  1
 23 25  1
 24 26  2
 25 27  2
  8  9  2
 14 16  1
 22 23  2
 26 27  1
M  END
> <COMPOUND_NAMES>
Compound 145 (S) (Page No: 59, Table No: 1)

> <Reference>
WO 2021/021761 A1

> <IC50_range_nM>
>5000

> <smiles>
C[C@@H](c1cccc(c1)NC(N1Cc2c(C1)nccn2)=O)Sc1nncn1C

$$$$
C18H21N7OS
  MOLSOFT 03092310482D

 27 30  0  0  1  0  0  0  0  0999 V2000
    0.0000   -0.0000    0.0000 S   0  0  0
   -1.3126    0.7686    0.0000 C   0  0  0
    1.2889    0.7686    0.0000 C   0  0  2
   -2.6961    0.1655    0.0000 N   0  0  0
   -1.4781    2.2704    0.0000 N   0  0  0
    2.5778    0.0236    0.0000 C   0  0  0
    1.2771    2.2822    0.0000 C   0  0  0
   -3.7130    1.2889    0.0000 N   0  0  0
   -2.9562    2.5897    0.0000 C   0  0  0
   -0.3784    3.2873    0.0000 C   0  0  0
    3.8668    0.7923    0.0000 C   0  0  0
    2.5660   -1.4663    0.0000 C   0  0  0
    5.1557    0.0473    0.0000 C   0  0  0
    3.8549   -2.2113    0.0000 C   0  0  0
    6.4446    0.8159    0.0000 N   0  0  0
    5.1439   -1.4426    0.0000 C   0  0  0
    7.7335    0.0709    0.0000 C   0  0  0
    7.7217   -1.4190    0.0000 O   0  0  0
    9.0225    0.8396    0.0000 N   0  0  0
    9.1644    2.3413    0.0000 C   0  0  0
   10.3823    0.2365    0.0000 C   0  0  0
   10.6188    2.6606    0.0000 C   0  0  0
   11.3756    1.3599    0.0000 C   0  0  0
   11.6121    3.7840    0.0000 N   0  0  0
   12.8301    1.6791    0.0000 C   0  0  0
   12.9720    3.1809    0.0000 N   0  0  0
   11.2929    5.2621    0.0000 C   0  0  0
  1  2  1
  3  1  1  1  0
  2  4  2
  2  5  1
  3  6  1
  3  7  1
  4  8  1
  5  9  1
  5 10  1
  6 11  2
  6 12  1
 11 13  1
 12 14  2
 13 15  1
 13 16  2
 15 17  1
 17 18  2
 17 19  1
 19 20  1
 19 21  1
 20 22  1
 21 23  1
 22 24  1
 23 25  1
 24 26  1
 24 27  1
  8  9  2
 14 16  1
 22 23  2
 25 26  2
M  END
> <COMPOUND_NAMES>
Compound 46 (S) (Page No: 58, Table No: 1)

> <Reference>
WO 2021/021761 A1

> <IC50_range_nM>
1001-5000

> <smiles>
C[C@@H](c1cccc(c1)NC(N1Cc2cnn(C)c2C1)=O)Sc1nncn1C

$$$$
C18H20N6O2S
  MOLSOFT 03092310482D

 27 30  0  0  1  0  0  0  0  0999 V2000
    0.0000   -0.0000    0.0000 S   0  0  0
   -1.3128    0.7687    0.0000 C   0  0  0
    1.2891    0.7687    0.0000 C   0  0  2
   -2.6965    0.1656    0.0000 N   0  0  0
   -1.4784    2.2708    0.0000 N   0  0  0
    2.5783    0.0237    0.0000 C   0  0  0
    1.2773    2.2826    0.0000 C   0  0  0
   -3.7136    1.2891    0.0000 N   0  0  0
   -2.9567    2.5901    0.0000 C   0  0  0
   -0.3785    3.2879    0.0000 C   0  0  0
    3.8674    0.7924    0.0000 C   0  0  0
    2.5664   -1.4665    0.0000 C   0  0  0
    5.1565    0.0473    0.0000 C   0  0  0
    3.8556   -2.2116    0.0000 C   0  0  0
    6.4456    0.8161    0.0000 N   0  0  0
    5.1447   -1.4429    0.0000 C   0  0  0
    7.7348    0.0710    0.0000 C   0  0  0
    7.7230   -1.4192    0.0000 O   0  0  0
    9.0239    0.8397    0.0000 N   0  0  0
    9.0121    2.3535    0.0000 C   0  0  0
   10.3130    0.0946    0.0000 C   0  0  0
   10.3012    3.1105    0.0000 C   0  0  0
   11.6022    0.8634    0.0000 C   0  0  0
   11.5903    2.3772    0.0000 C   0  0  0
   10.5969    4.5888    0.0000 C   0  0  0
   12.6902    3.3943    0.0000 N   0  0  0
   12.0752    4.7544    0.0000 O   0  0  0
  1  2  1
  3  1  1  1  0
  2  4  2
  2  5  1
  3  6  1
  3  7  1
  4  8  1
  5  9  1
  5 10  1
  6 11  2
  6 12  1
 11 13  1
 12 14  2
 13 15  1
 13 16  2
 15 17  1
 17 18  2
 17 19  1
 19 20  1
 19 21  1
 20 22  1
 21 23  1
 22 24  1
 22 25  2
 24 26  2
 25 27  1
  8  9  2
 14 16  1
 23 24  1
 26 27  1
M  END
> <COMPOUND_NAMES>
Compound 125 (S) (Page No: 59, Table No: 1)

> <Reference>
WO 2021/021761 A1

> <IC50_range_nM>
>5000

> <smiles>
C[C@@H](c1cccc(c1)NC(N1CCc2c(C1)con2)=O)Sc1nncn1C

$$$$
C18H21N7OS
  MOLSOFT 03092310482D

 27 30  0  0  1  0  0  0  0  0999 V2000
    0.0000   -0.0000    0.0000 S   0  0  0
   -1.3128    0.7687    0.0000 C   0  0  0
    1.2891    0.7687    0.0000 C   0  0  2
   -2.6965    0.1656    0.0000 N   0  0  0
   -1.4784    2.2708    0.0000 N   0  0  0
    2.5783    0.0237    0.0000 C   0  0  0
    1.2773    2.2826    0.0000 C   0  0  0
   -3.7136    1.2891    0.0000 N   0  0  0
   -2.9567    2.5901    0.0000 C   0  0  0
   -0.3785    3.2879    0.0000 C   0  0  0
    3.8674    0.7924    0.0000 C   0  0  0
    2.5664   -1.4665    0.0000 C   0  0  0
    5.1565    0.0473    0.0000 C   0  0  0
    3.8556   -2.2116    0.0000 C   0  0  0
    6.4456    0.8161    0.0000 N   0  0  0
    5.1447   -1.4429    0.0000 C   0  0  0
    7.7348    0.0710    0.0000 C   0  0  0
    7.7230   -1.4192    0.0000 O   0  0  0
    9.0239    0.8397    0.0000 N   0  0  0
    9.0121    2.3535    0.0000 C   0  0  0
   10.3130    0.0946    0.0000 C   0  0  0
   10.3012    3.1105    0.0000 C   0  0  0
   11.6022    0.8634    0.0000 C   0  0  0
   11.5903    2.3772    0.0000 N   0  0  0
   10.5969    4.5888    0.0000 C   0  0  0
   12.6902    3.3943    0.0000 N   0  0  0
   12.0752    4.7544    0.0000 C   0  0  0
  1  2  1
  3  1  1  1  0
  2  4  2
  2  5  1
  3  6  1
  3  7  1
  4  8  1
  5  9  1
  5 10  1
  6 11  2
  6 12  1
 11 13  1
 12 14  2
 13 15  1
 13 16  2
 15 17  1
 17 18  2
 17 19  1
 19 20  1
 19 21  1
 20 22  1
 21 23  1
 22 24  1
 22 25  2
 24 26  1
 25 27  1
  8  9  2
 14 16  1
 23 24  1
 26 27  2
M  END
> <COMPOUND_NAMES>
Compound 44 (S) (Page No: 58, Table No: 1)

> <Reference>
WO 2021/021761 A1

> <IC50_range_nM>
>5000

> <smiles>
C[C@@H](c1cccc(c1)NC(N1CCn2c(C1)ccn2)=O)Sc1nncn1C

$$$$
C17H19N7OS
  MOLSOFT 03092310482D

 26 28  0  0  1  0  0  0  0  0999 V2000
    0.0000   -0.0000    0.0000 S   0  0  0
   -1.3138    0.7693    0.0000 C   0  0  0
    1.2901    0.7693    0.0000 C   0  0  2
   -2.6986    0.1657    0.0000 N   0  0  0
   -1.4795    2.2725    0.0000 N   0  0  0
    2.5802    0.0237    0.0000 C   0  0  0
    1.2783    2.2843    0.0000 C   0  0  0
   -3.7164    1.2901    0.0000 N   0  0  0
   -2.9589    2.5920    0.0000 C   0  0  0
   -0.3787    3.2903    0.0000 C   0  0  0
    3.8703    0.7930    0.0000 C   0  0  0
    2.5684   -1.4676    0.0000 C   0  0  0
    5.1604    0.0473    0.0000 C   0  0  0
    3.8585   -2.2133    0.0000 C   0  0  0
    6.4505    0.8167    0.0000 N   0  0  0
    5.1486   -1.4440    0.0000 C   0  0  0
    7.7406    0.0710    0.0000 C   0  0  0
    7.7287   -1.4203    0.0000 O   0  0  0
    9.0307    0.8403    0.0000 N   0  0  0
   10.3208    0.0947    0.0000 C   0  0  0
   10.3089   -1.3966    0.0000 N   0  0  0
   11.6109    0.8640    0.0000 C   0  0  0
   11.5990   -2.1423    0.0000 N   0  0  0
   12.9010    0.1184    0.0000 C   0  0  0
   12.8891   -1.3729    0.0000 C   0  0  0
   14.1911    0.8877    0.0000 C   0  0  0
  1  2  1
  3  1  1  1  0
  2  4  2
  2  5  1
  3  6  1
  3  7  1
  4  8  1
  5  9  1
  5 10  1
  6 11  2
  6 12  1
 11 13  1
 12 14  2
 13 15  1
 13 16  2
 15 17  1
 17 18  2
 17 19  1
 19 20  1
 20 21  2
 20 22  1
 21 23  1
 22 24  2
 23 25  2
 24 26  1
  8  9  2
 14 16  1
 24 25  1
M  END
> <COMPOUND_NAMES>
Compound 39 (S) (Page No: 57, Table No: 1)

> <Reference>
WO 2021/021761 A1

> <IC50_range_nM>
1001-5000

> <smiles>
Cc1cc(NC(Nc2cccc(c2)[C@H](C)Sc2nncn2C)=O)nnc1

$$$$
C21H26N8OS
  MOLSOFT 03092310482D

 31 34  0  0  1  0  0  0  0  0999 V2000
    0.0000   -0.0000    0.0000 S   0  0  0
   -1.3171    0.7594    0.0000 C   0  0  0
    1.2933    0.7594    0.0000 C   0  0  2
   -2.7053    0.1543    0.0000 N   0  0  0
   -1.4832    2.2663    0.0000 N   0  0  0
    2.5867    0.0237    0.0000 C   0  0  0
    1.2815    2.2782    0.0000 C   0  0  0
   -3.7258    1.2815    0.0000 N   0  0  0
   -2.9664    2.5867    0.0000 C   0  0  0
   -0.3797    3.2867    0.0000 C   0  0  0
    3.8800    0.7831    0.0000 C   0  0  0
    2.5748   -1.4713    0.0000 C   0  0  0
    5.1733    0.0475    0.0000 C   0  0  0
    3.8681   -2.2070    0.0000 C   0  0  0
    6.4667    0.8069    0.0000 N   0  0  0
    5.1615   -1.4476    0.0000 C   0  0  0
    7.7600    0.0712    0.0000 C   0  0  0
    7.7481   -1.4239    0.0000 O   0  0  0
    9.0533    0.8306    0.0000 N   0  0  0
   10.3467    0.0949    0.0000 C   0  0  3
   10.3348   -1.4001    0.0000 C   0  0  0
   11.6400    0.8543    0.0000 C   0  0  0
   11.6281   -2.1358    0.0000 N   0  0  0
   12.9333    0.1187    0.0000 C   0  0  0
   11.6163   -3.6308    0.0000 C   0  0  0
   12.9215   -1.3764    0.0000 C   0  0  0
   12.9096   -4.3784    0.0000 N   0  0  0
   10.2992   -4.3784    0.0000 C   0  0  0
   12.8977   -5.8734    0.0000 N   0  0  0
   10.2873   -5.8734    0.0000 C   0  0  0
   11.5807   -6.6091    0.0000 C   0  0  0
  1  2  1
  3  1  1  1  0
  2  4  2
  2  5  1
  3  6  1
  3  7  1
  4  8  1
  5  9  1
  5 10  1
  6 11  2
  6 12  1
 11 13  1
 12 14  2
 13 15  1
 13 16  2
 15 17  1
 17 18  2
 17 19  1
 20 19  1
 20 21  1
 20 22  1
 21 23  1
 22 24  1
 23 25  1
 23 26  1
 25 27  2
 25 28  1
 27 29  1
 28 30  2
 29 31  2
  8  9  2
 14 16  1
 24 26  1
 30 31  1
M  END
> <COMPOUND_NAMES>
Compound 129 (S) (Page No: 59, Table No: 1)

> <Reference>
WO 2021/021761 A1

> <IC50_range_nM>
>5000

> <smiles>
C[C@@H](c1cccc(c1)NC(NC1CCCN(C1)c1cccnn1)=O)Sc1nncn1C

$$$$
C19H25N7OS
  MOLSOFT 03092310482D

 28 30  0  0  1  0  0  0  0  0999 V2000
    0.0000   -0.0000    0.0000 S   0  0  0
    1.0964   -0.9903    0.0000 C   0  0  0
    0.2947    1.4737    0.0000 C   0  0  2
    2.5465   -0.6720    0.0000 N   0  0  0
    0.9314   -2.4640    0.0000 N   0  0  0
   -0.8253    2.4876    0.0000 C   0  0  0
    1.7095    1.9453    0.0000 C   0  0  0
    3.2775   -1.9570    0.0000 N   0  0  0
    2.2872   -3.0653    0.0000 C   0  0  0
   -0.3773   -3.1949    0.0000 C   0  0  0
   -2.2636    2.0396    0.0000 C   0  0  0
   -0.5305    3.9613    0.0000 C   0  0  0
   -3.3836    3.0535    0.0000 C   0  0  0
   -1.6505    4.9751    0.0000 C   0  0  0
   -4.8219    2.6055    0.0000 N   0  0  0
   -3.0888    4.5271    0.0000 C   0  0  0
   -5.9419    3.6194    0.0000 C   0  0  0
   -5.6471    5.0930    0.0000 O   0  0  0
   -7.3802    3.1714    0.0000 N   0  0  0
   -8.5002    4.1853    0.0000 C   0  0  0
   -7.6985    1.7213    0.0000 C   0  0  0
   -9.9385    3.7373    0.0000 C   0  0  0
  -10.4101    2.3225    0.0000 C   0  0  0
  -11.1646    4.6333    0.0000 C   0  0  0
  -11.9191    2.3343    0.0000 N   0  0  0
  -12.3907    3.7608    0.0000 N   0  0  0
  -13.8290    4.2324    0.0000 C   0  0  0
  -14.9490    3.2421    0.0000 C   0  0  0
  1  2  1
  3  1  1  6  0
  2  4  2
  2  5  1
  3  6  1
  3  7  1
  4  8  1
  5  9  1
  5 10  1
  6 11  2
  6 12  1
 11 13  1
 12 14  2
 13 15  1
 13 16  2
 15 17  1
 17 18  2
 17 19  1
 19 20  1
 19 21  1
 20 22  1
 22 23  1
 22 24  2
 23 25  2
 24 26  1
 26 27  1
 27 28  1
  8  9  2
 14 16  1
 25 26  1
M  END
> <COMPOUND_NAMES>
Compound 152 (S) (Page No: 60, Table No: 1)

> <Reference>
WO 2021/021761 A1

> <IC50_range_nM>
>5000

> <smiles>
CCn1cc(CN(C)C(Nc2cccc(c2)[C@H](C)Sc2nncn2C)=O)cn1

$$$$
C22H29N7OS
  MOLSOFT 03092310482D

 31 34  0  0  1  0  0  0  0  0999 V2000
    0.0000   -0.0000    0.0000 S   0  0  0
   -1.3121    0.7684    0.0000 C   0  0  0
    1.2885    0.7684    0.0000 C   0  0  2
   -2.6952    0.1655    0.0000 N   0  0  0
   -1.4776    2.2697    0.0000 N   0  0  0
    2.5770    0.0236    0.0000 C   0  0  0
    1.2767    2.2815    0.0000 C   0  0  0
   -3.7118    1.2885    0.0000 N   0  0  0
   -2.9553    2.5888    0.0000 C   0  0  0
   -0.3783    3.2863    0.0000 C   0  0  0
    3.8655    0.7920    0.0000 C   0  0  0
    2.5652   -1.4658    0.0000 C   0  0  0
    5.1540    0.0473    0.0000 C   0  0  0
    3.8537   -2.2105    0.0000 C   0  0  0
    6.4425    0.8157    0.0000 N   0  0  0
    5.1422   -1.4422    0.0000 C   0  0  0
    7.7310    0.0709    0.0000 C   0  0  0
    7.7192   -1.4185    0.0000 O   0  0  0
    9.0195    0.8393    0.0000 N   0  0  0
   10.3789    0.2364    0.0000 C   0  0  0
    9.1614    2.3406    0.0000 C   0  0  0
   11.3719    1.3594    0.0000 C   0  0  0
   10.6154    2.6598    0.0000 C   0  0  3
   12.5777    0.4847    0.0000 C   0  0  0
   12.7313    1.9859    0.0000 C   0  0  0
   11.2182    4.0428    0.0000 C   0  0  0
   12.6722    4.3620    0.0000 C   0  0  0
   10.4617    5.3550    0.0000 C   0  0  0
   12.8141    5.8633    0.0000 N   0  0  0
   11.4547    6.4780    0.0000 N   0  0  0
   11.1355    7.9556    0.0000 C   0  0  0
  1  2  1
  3  1  1  1  0
  2  4  2
  2  5  1
  3  6  1
  3  7  1
  4  8  1
  5  9  1
  5 10  1
  6 11  2
  6 12  1
 11 13  1
 12 14  2
 13 15  1
 13 16  2
 15 17  1
 17 18  2
 17 19  1
 19 20  1
 19 21  1
 20 22  1
 23 21  1
 22 24  1
 22 25  1
 23 26  1
 26 27  1
 26 28  2
 27 29  2
 28 30  1
 30 31  1
  8  9  2
 14 16  1
 23 22  1
 29 30  1
M  END
> <COMPOUND_NAMES>
Compound 53 (S) (Page No: 58, Table No: 1)

> <Reference>
WO 2021/021761 A1

> <IC50_range_nM>
>5000

> <smiles>
C[C@@H](c1cccc(c1)NC(N1CC(c2cnn(C)c2)C(C)(C)C1)=O)Sc1nncn1C

$$$$
C19H25N5OS
  MOLSOFT 03092310482D

 26 29  0  0  1  0  0  0  0  0999 V2000
    0.0000   -0.0000    0.0000 S   0  0  0
   -1.3129    0.7688    0.0000 C   0  0  0
    1.2893    0.7688    0.0000 C   0  0  2
   -2.6969    0.1656    0.0000 N   0  0  0
   -1.4785    2.2710    0.0000 N   0  0  0
    2.5786    0.0237    0.0000 C   0  0  0
    1.2775    2.2829    0.0000 C   0  0  0
   -3.7141    1.2893    0.0000 N   0  0  0
   -2.9571    2.5904    0.0000 C   0  0  0
   -0.3785    3.2883    0.0000 C   0  0  0
    3.8679    0.7925    0.0000 C   0  0  0
    2.5667   -1.4667    0.0000 C   0  0  0
    5.1571    0.0473    0.0000 C   0  0  0
    3.8560   -2.2119    0.0000 C   0  0  0
    6.4464    0.8162    0.0000 N   0  0  0
    5.1453   -1.4431    0.0000 C   0  0  0
    7.7357    0.0710    0.0000 C   0  0  0
    7.7239   -1.4194    0.0000 O   0  0  0
    9.0250    0.8398    0.0000 N   0  0  0
    9.1669    2.3420    0.0000 C   0  0  0
   10.3853    0.2366    0.0000 C   0  0  0
   10.6218    2.6614    0.0000 C   0  0  3
   11.3788    1.3603    0.0000 C   0  0  3
   11.6154    3.7851    0.0000 C   0  0  0
   12.8337    1.6796    0.0000 C   0  0  0
   12.9757    3.1818    0.0000 C   0  0  0
  1  2  1
  3  1  1  1  0
  2  4  2
  2  5  1
  3  6  1
  3  7  1
  4  8  1
  5  9  1
  5 10  1
  6 11  2
  6 12  1
 11 13  1
 12 14  2
 13 15  1
 13 16  2
 15 17  1
 17 18  2
 17 19  1
 19 20  1
 19 21  1
 22 20  1
 23 21  1
 22 24  1
 23 25  1
 24 26  1
  8  9  2
 14 16  1
 22 23  1
 25 26  1
M  END
> <COMPOUND_NAMES>
Compound 40 (S) (Page No: 57, Table No: 1)

> <Reference>
WO 2021/021761 A1

> <IC50_range_nM>
1001-5000

> <smiles>
C[C@@H](c1cccc(c1)NC(N1CC2CCCC2C1)=O)Sc1nncn1C

$$$$
C18H23N5O2S
  MOLSOFT 03092310482D

 26 29  0  0  1  0  0  0  0  0999 V2000
    0.0000   -0.0000    0.0000 S   0  0  0
   -1.3132    0.7572    0.0000 C   0  0  0
    1.2896    0.7572    0.0000 C   0  0  2
   -2.6975    0.1538    0.0000 N   0  0  0
   -1.4789    2.2597    0.0000 N   0  0  0
    2.5792    0.0237    0.0000 C   0  0  0
    1.2777    2.2715    0.0000 C   0  0  0
   -3.7149    1.2777    0.0000 N   0  0  0
   -2.9577    2.5792    0.0000 C   0  0  0
   -0.3786    3.2772    0.0000 C   0  0  0
    2.5673   -1.4670    0.0000 C   0  0  0
    3.8687    0.7808    0.0000 C   0  0  0
    3.8569   -2.2006    0.0000 C   0  0  0
    5.1583    0.0473    0.0000 C   0  0  0
    3.8451   -3.6913    0.0000 N   0  0  0
    5.1465   -1.4434    0.0000 C   0  0  0
    2.5318   -4.4248    0.0000 C   0  0  0
    1.2186   -3.6676    0.0000 O   0  0  0
    2.5200   -5.9155    0.0000 N   0  0  0
    3.5730   -6.9684    0.0000 C   0  0  0
    1.4434   -6.9684    0.0000 C   0  0  0
    2.4963   -8.0214    0.0000 C   0  0  0
    1.4197   -9.0744    0.0000 C   0  0  3
    3.5493   -9.0744    0.0000 C   0  0  0
   -0.0946   -9.0625    0.0000 O   0  0  0
    2.4727  -10.1273    0.0000 C   0  0  0
  1  2  1
  3  1  1  1  0
  2  4  2
  2  5  1
  3  6  1
  3  7  1
  4  8  1
  5  9  1
  5 10  1
  6 11  2
  6 12  1
 11 13  1
 12 14  2
 13 15  1
 13 16  2
 15 17  1
 17 18  2
 17 19  1
 19 20  1
 19 21  1
 20 22  1
 23 22  1
 22 24  1
 23 25  1
 23 26  1
  8  9  2
 14 16  1
 21 22  1
 24 26  1
M  END
> <COMPOUND_NAMES>
Compound 133 (S) (Page No: 59, Table No: 1)

> <Reference>
WO 2021/021761 A1

> <IC50_range_nM>
>5000

> <smiles>
C[C@@H](c1cccc(c1)NC(N1CC2(CCC2O)C1)=O)Sc1nncn1C

$$$$
C18H23N5O2S
  MOLSOFT 03092310482D

 26 29  0  0  1  0  0  0  0  0999 V2000
    0.0000   -0.0000    0.0000 S   0  0  0
   -1.3121    0.7684    0.0000 C   0  0  0
    1.2885    0.7684    0.0000 C   0  0  2
   -2.6952    0.1655    0.0000 N   0  0  0
   -1.4776    2.2696    0.0000 N   0  0  0
    2.5770    0.0236    0.0000 C   0  0  0
    1.2767    2.2815    0.0000 C   0  0  0
   -3.7118    1.2885    0.0000 N   0  0  0
   -2.9553    2.5888    0.0000 C   0  0  0
   -0.3783    3.2862    0.0000 C   0  0  0
    3.8655    0.7920    0.0000 C   0  0  0
    2.5652   -1.4658    0.0000 C   0  0  0
    5.1540    0.0473    0.0000 C   0  0  0
    3.8536   -2.2105    0.0000 C   0  0  0
    6.4424    0.8156    0.0000 N   0  0  0
    5.1421   -1.4422    0.0000 C   0  0  0
    7.7309    0.0709    0.0000 C   0  0  0
    7.7191   -1.4185    0.0000 O   0  0  0
    9.0194    0.8393    0.0000 N   0  0  0
    9.3977    2.3051    0.0000 C   0  0  0
   10.4616    0.4610    0.0000 C   0  0  0
   10.8399    1.9268    0.0000 C   0  0  0
   12.1993    1.3240    0.0000 O   0  0  0
   10.9817    3.4281    0.0000 C   0  0  0
   13.1922    2.4469    0.0000 C   0  0  0
   12.4357    3.7473    0.0000 C   0  0  0
  1  2  1
  3  1  1  1  0
  2  4  2
  2  5  1
  3  6  1
  3  7  1
  4  8  1
  5  9  1
  5 10  1
  6 11  2
  6 12  1
 11 13  1
 12 14  2
 13 15  1
 13 16  2
 15 17  1
 17 18  2
 17 19  1
 19 20  1
 19 21  1
 20 22  1
 22 23  1
 22 24  1
 23 25  1
 24 26  1
  8  9  2
 14 16  1
 21 22  1
 25 26  1
M  END
> <COMPOUND_NAMES>
Compound 138 (S) (Page No: 59, Table No: 1)

> <Reference>
WO 2021/021761 A1

> <IC50_range_nM>
>5000

> <smiles>
C[C@@H](c1cccc(c1)NC(N1CC2(CCCO2)C1)=O)Sc1nncn1C

$$$$
C18H23N5O2S
  MOLSOFT 03092310482D

 26 29  0  0  1  0  0  0  0  0999 V2000
    0.0000   -0.0000    0.0000 S   0  0  0
   -1.3130    0.7689    0.0000 C   0  0  0
    1.2894    0.7689    0.0000 C   0  0  2
   -2.6970    0.1656    0.0000 N   0  0  0
   -1.4786    2.2712    0.0000 N   0  0  0
    2.5787    0.0237    0.0000 C   0  0  0
    1.2775    2.2830    0.0000 C   0  0  0
   -3.7143    1.2894    0.0000 N   0  0  0
   -2.9572    2.5905    0.0000 C   0  0  0
   -0.3785    3.2884    0.0000 C   0  0  0
    3.8681    0.7925    0.0000 C   0  0  0
    2.5669   -1.4668    0.0000 C   0  0  0
    5.1574    0.0473    0.0000 C   0  0  0
    3.8562   -2.2120    0.0000 C   0  0  0
    6.4468    0.8162    0.0000 N   0  0  0
    5.1456   -1.4431    0.0000 C   0  0  0
    7.7361    0.0710    0.0000 C   0  0  0
    7.7243   -1.4195    0.0000 O   0  0  0
    9.0255    0.8399    0.0000 N   0  0  0
   10.3148    0.0946    0.0000 C   0  0  0
    9.0136    2.3540    0.0000 C   0  0  0
   11.6042    0.8635    0.0000 C   0  0  0
   10.3030    3.1110    0.0000 C   0  0  0
   11.5924    2.3776    0.0000 O   0  0  0
   13.0946    0.8753    0.0000 C   0  0  0
   12.3376   -0.4258    0.0000 C   0  0  0
  1  2  1
  3  1  1  1  0
  2  4  2
  2  5  1
  3  6  1
  3  7  1
  4  8  1
  5  9  1
  5 10  1
  6 11  2
  6 12  1
 11 13  1
 12 14  2
 13 15  1
 13 16  2
 15 17  1
 17 18  2
 17 19  1
 19 20  1
 19 21  1
 20 22  1
 21 23  1
 22 24  1
 22 25  1
 22 26  1
  8  9  2
 14 16  1
 23 24  1
 25 26  1
M  END
> <COMPOUND_NAMES>
Compound 48 (S) (Page No: 58, Table No: 1)

> <Reference>
WO 2021/021761 A1

> <IC50_range_nM>
>5000

> <smiles>
C[C@@H](c1cccc(c1)NC(N1CCOC2(CC2)C1)=O)Sc1nncn1C

$$$$
C19H25N5O2S
  MOLSOFT 03092310482D

 27 30  0  0  1  0  0  0  0  0999 V2000
    0.0000   -0.0000    0.0000 S   0  0  0
   -1.3130    0.7689    0.0000 C   0  0  0
    1.2893    0.7689    0.0000 C   0  0  2
   -2.6969    0.1656    0.0000 N   0  0  0
   -1.4786    2.2711    0.0000 N   0  0  0
    2.5787    0.0237    0.0000 C   0  0  0
    1.2775    2.2829    0.0000 C   0  0  0
   -3.7142    1.2893    0.0000 N   0  0  0
   -2.9572    2.5905    0.0000 C   0  0  0
   -0.3785    3.2884    0.0000 C   0  0  0
    3.8680    0.7925    0.0000 C   0  0  0
    2.5668   -1.4668    0.0000 C   0  0  0
    5.1573    0.0473    0.0000 C   0  0  0
    3.8562   -2.2120    0.0000 C   0  0  0
    6.4466    0.8162    0.0000 N   0  0  0
    5.1455   -1.4431    0.0000 C   0  0  0
    7.7360    0.0710    0.0000 C   0  0  0
    7.7241   -1.4194    0.0000 O   0  0  0
    9.0253    0.8398    0.0000 N   0  0  0
   10.3146    0.0946    0.0000 C   0  0  0
    9.0135    2.3539    0.0000 C   0  0  0
   11.6039    0.8635    0.0000 C   0  0  0
   10.3028    3.1109    0.0000 C   0  0  0
   11.5921    2.3776    0.0000 O   0  0  0
   13.0471    1.2657    0.0000 C   0  0  0
   11.9825   -0.5796    0.0000 C   0  0  0
   13.4256   -0.1774    0.0000 C   0  0  0
  1  2  1
  3  1  1  1  0
  2  4  2
  2  5  1
  3  6  1
  3  7  1
  4  8  1
  5  9  1
  5 10  1
  6 11  2
  6 12  1
 11 13  1
 12 14  2
 13 15  1
 13 16  2
 15 17  1
 17 18  2
 17 19  1
 19 20  1
 19 21  1
 20 22  1
 21 23  1
 22 24  1
 22 25  1
 22 26  1
 25 27  1
  8  9  2
 14 16  1
 23 24  1
 26 27  1
M  END
> <COMPOUND_NAMES>
Compound 43 (S) (Page No: 58, Table No: 1)

> <Reference>
WO 2021/021761 A1

> <IC50_range_nM>
>5000

> <smiles>
C[C@@H](c1cccc(c1)NC(N1CCOC2(CCC2)C1)=O)Sc1nncn1C

$$$$
C19H23F3N6O2S
  MOLSOFT 03092310482D

 31 33  0  0  1  0  0  0  0  0999 V2000
    0.0000   -0.0000    0.0000 S   0  0  0
   -1.4991    0.1653    0.0000 C   0  0  0
    0.6020   -1.3574    0.0000 C   0  0  2
   -2.5142   -0.9325    0.0000 N   0  0  0
   -2.2545    1.4755    0.0000 N   0  0  0
    2.0775   -1.4991    0.0000 C   0  0  0
   -0.2951   -2.5614    0.0000 C   0  0  0
   -3.8953   -0.3069    0.0000 N   0  0  0
   -3.7300    1.1804    0.0000 C   0  0  0
   -1.6525    2.8565    0.0000 C   0  0  0
    2.9510   -0.2715    0.0000 C   0  0  0
    2.6795   -2.8565    0.0000 C   0  0  0
    4.4264   -0.4131    0.0000 C   0  0  0
    4.1549   -2.9982    0.0000 C   0  0  0
    5.2999    0.8145    0.0000 N   0  0  0
    5.0284   -1.7706    0.0000 C   0  0  0
    6.7754    0.6728    0.0000 C   0  0  0
    7.3774   -0.6846    0.0000 O   0  0  0
    7.6489    1.9004    0.0000 N   0  0  0
    7.1767    3.3405    0.0000 C   0  0  0
    9.1362    1.9122    0.0000 C   0  0  0
    8.3807    4.2376    0.0000 C   0  0  3
    9.5847    3.3523    0.0000 C   0  0  0
    7.0705    4.9930    0.0000 C   0  0  0
    8.3689    5.7485    0.0000 C   0  0  0
    7.0587    6.5039    0.0000 O   0  0  0
    5.7603    4.2612    0.0000 N   0  0  0
    8.3571    7.2593    0.0000 F   0  0  0
    9.8562    5.7603    0.0000 F   0  0  0
    6.8580    5.7603    0.0000 F   0  0  0
    4.4500    5.0166    0.0000 C   0  0  0
  1  2  1
  3  1  1  6  0
  2  4  2
  2  5  1
  3  6  1
  3  7  1
  4  8  1
  5  9  1
  5 10  1
  6 11  2
  6 12  1
 11 13  1
 12 14  2
 13 15  1
 13 16  2
 15 17  1
 17 18  2
 17 19  1
 19 20  1
 19 21  1
 22 20  1
 21 23  1
 22 24  1
 22 25  1
 24 26  2
 24 27  1
 25 28  1
 25 29  1
 25 30  1
 27 31  1
  8  9  2
 14 16  1
 22 23  1
M  END
> <COMPOUND_NAMES>
Compound 50 (S) (Page No: 58, Table No: 1)

> <Reference>
WO 2021/021761 A1

> <IC50_range_nM>
1001-5000

> <smiles>
C[C@@H](c1cccc(c1)NC(N1CCC(C1)(C(NC)=O)C(F)(F)F)=O)Sc1nncn1C

$$$$
C20H26N6O3S
  MOLSOFT 03092310482D

 30 33  0  0  1  0  0  0  0  0999 V2000
    0.0000   -0.0000    0.0000 S   0  0  0
   -1.3150    0.7582    0.0000 C   0  0  0
    1.2913    0.7582    0.0000 C   0  0  2
   -2.7011    0.1540    0.0000 N   0  0  0
   -1.4808    2.2627    0.0000 N   0  0  0
    2.5826    0.0118    0.0000 C   0  0  0
    1.2794    2.2746    0.0000 C   0  0  0
   -3.7199    1.2794    0.0000 N   0  0  0
   -2.9617    2.5826    0.0000 C   0  0  0
   -0.3791    3.2815    0.0000 C   0  0  0
    3.8739    0.7700    0.0000 C   0  0  0
    2.5707   -1.4808    0.0000 C   0  0  0
    5.1652    0.0237    0.0000 C   0  0  0
    3.8620   -2.2153    0.0000 C   0  0  0
    6.4565    0.7819    0.0000 N   0  0  0
    5.1533   -1.4690    0.0000 C   0  0  0
    7.7477    0.0355    0.0000 C   0  0  0
    7.7359   -1.4571    0.0000 O   0  0  0
    9.0390    0.7937    0.0000 N   0  0  0
    9.4181    2.2627    0.0000 C   0  0  0
   10.4843    0.4146    0.0000 C   0  0  0
   10.8634    1.8836    0.0000 C   0  0  0
   12.1547    2.6418    0.0000 C   0  0  0
   12.1429    4.1582    0.0000 O   0  0  0
   13.4460    1.9073    0.0000 N   0  0  0
   13.5882    0.4265    0.0000 C   0  0  0
   14.8084    2.5352    0.0000 C   0  0  0
   15.0453    0.1303    0.0000 C   0  0  3
   15.8035    1.4335    0.0000 C   0  0  0
   15.6495   -1.2321    0.0000 O   0  0  0
  1  2  1
  3  1  1  1  0
  2  4  2
  2  5  1
  3  6  1
  3  7  1
  4  8  1
  5  9  1
  5 10  1
  6 11  2
  6 12  1
 11 13  1
 12 14  2
 13 15  1
 13 16  2
 15 17  1
 17 18  2
 17 19  1
 19 20  1
 19 21  1
 20 22  1
 22 23  1
 23 24  2
 23 25  1
 25 26  1
 25 27  1
 28 26  1
 27 29  1
 28 30  1
  8  9  2
 14 16  1
 21 22  1
 28 29  1
M  END
> <COMPOUND_NAMES>
Compound 153 (S) (Page No: 60, Table No: 1)

> <Reference>
WO 2021/021761 A1

> <IC50_range_nM>
>5000

> <smiles>
C[C@@H](c1cccc(c1)NC(N1CC(C1)C(N1CCC(C1)O)=O)=O)Sc1nncn1C

$$$$
C21H28N6O3S
  MOLSOFT 03092310482D

 31 34  0  0  1  0  0  0  0  0999 V2000
    0.0000   -0.0000    0.0000 S   0  0  0
   -1.3150    0.7582    0.0000 C   0  0  0
    1.2914    0.7582    0.0000 C   0  0  2
   -2.7012    0.1540    0.0000 N   0  0  0
   -1.4809    2.2628    0.0000 N   0  0  0
    2.5827    0.0118    0.0000 C   0  0  0
    1.2795    2.2747    0.0000 C   0  0  0
   -3.7200    1.2795    0.0000 N   0  0  0
   -2.9618    2.5827    0.0000 C   0  0  0
   -0.3791    3.2817    0.0000 C   0  0  0
    3.8741    0.7701    0.0000 C   0  0  0
    2.5709   -1.4809    0.0000 C   0  0  0
    5.1654    0.0237    0.0000 C   0  0  0
    3.8622   -2.2154    0.0000 C   0  0  0
    6.4568    0.7819    0.0000 N   0  0  0
    5.1536   -1.4691    0.0000 C   0  0  0
    7.7481    0.0355    0.0000 C   0  0  0
    7.7363   -1.4572    0.0000 O   0  0  0
    9.0395    0.7938    0.0000 N   0  0  0
    9.4186    2.2628    0.0000 C   0  0  0
   10.4848    0.4147    0.0000 C   0  0  0
   10.8640    1.8837    0.0000 C   0  0  0
   12.1553    2.6419    0.0000 C   0  0  0
   12.1435    4.1584    0.0000 O   0  0  0
   13.4467    1.9074    0.0000 N   0  0  0
   14.7380    2.6656    0.0000 C   0  0  0
   13.4348    0.4147    0.0000 C   0  0  0
   16.0294    1.9311    0.0000 C   0  0  0
   14.7262   -0.3317    0.0000 C   0  0  0
   16.0175    0.4383    0.0000 C   0  0  0
   17.3089   -0.3080    0.0000 O   0  0  0
  1  2  1
  3  1  1  1  0
  2  4  2
  2  5  1
  3  6  1
  3  7  1
  4  8  1
  5  9  1
  5 10  1
  6 11  2
  6 12  1
 11 13  1
 12 14  2
 13 15  1
 13 16  2
 15 17  1
 17 18  2
 17 19  1
 19 20  1
 19 21  1
 20 22  1
 22 23  1
 23 24  2
 23 25  1
 25 26  1
 25 27  1
 26 28  1
 27 29  1
 28 30  1
 30 31  1
  8  9  2
 14 16  1
 21 22  1
 29 30  1
M  END
> <COMPOUND_NAMES>
Compound 140 (S) (Page No: 59, Table No: 1)

> <Reference>
WO 2021/021761 A1

> <IC50_range_nM>
>5000

> <smiles>
C[C@@H](c1cccc(c1)NC(N1CC(C1)C(N1CCC(CC1)O)=O)=O)Sc1nncn1C

$$$$
tmpchemobj
  MOLSOFT 03092310482D

 23 25  0  0  1  0  0  0  0  0999 V2000
   -2.1659   -4.3088    0.0000 C   0  0  0
   -1.4659   -3.0963    0.0000 C   0  0  2
   -0.0659   -3.0963    0.0000 S   0  0  0
    0.6341   -4.3088    0.0000 C   0  0  0
    2.0264   -4.4551    0.0000 N   0  0  0
    2.3175   -5.8245    0.0000 N   0  0  0
    1.1050   -6.5245    0.0000 C   0  0  0
    0.0646   -5.5877    0.0000 N   0  0  0
   -1.3048   -5.8788    0.0000 C   0  0  0
   -2.1659   -1.8839    0.0000 C   0  0  0
   -3.5659   -1.8839    0.0000 C   0  0  0
   -4.2659   -0.6714    0.0000 C   0  0  0
   -5.6659   -0.6714    0.0000 N   0  0  0
   -6.3659   -1.8839    0.0000 C   0  0  0
   -5.6659   -3.0963    0.0000 O   0  0  0
   -7.7659   -1.8839    0.0000 N   0  0  0
   -8.5888   -0.7513    0.0000 C   0  0  0
   -9.9203   -1.1839    0.0000 C   0  0  0
   -9.9203   -2.5839    0.0000 C   0  0  0
   -8.5888   -3.0165    0.0000 C   0  0  0
   -3.5659    0.5410    0.0000 C   0  0  0
   -2.1659    0.5410    0.0000 C   0  0  0
   -1.4659   -0.6714    0.0000 C   0  0  0
  2  1  1  1  0
  2  3  1
  2 10  1
  3  4  1
  4  5  2
  4  8  1
  5  6  1
  6  7  2
  7  8  1
  8  9  1
 10 11  2
 10 23  1
 11 12  1
 12 13  1
 12 21  2
 13 14  1
 14 15  2
 14 16  1
 16 17  1
 16 20  1
 17 18  1
 18 19  1
 19 20  1
 21 22  1
 22 23  2
M  ZZC   1 c1
M  ZZC   2 c2
M  ZZC   3 s1
M  ZZC   4 c3
M  ZZC   5 n1
M  ZZC   6 n2
M  ZZC   7 c4
M  ZZC   8 n3
M  ZZC   9 c5
M  ZZC  10 c6
M  ZZC  11 c7
M  ZZC  12 c8
M  ZZC  13 n4
M  ZZC  14 c9
M  ZZC  15 o1
M  ZZC  16 n5
M  ZZC  17 c10
M  ZZC  18 c11
M  ZZC  19 c12
M  ZZC  20 c13
M  ZZC  21 c14
M  ZZC  22 c15
M  ZZC  23 c16
M  ZZO   1 1.000000
M  ZZO   2 1.000000
M  ZZO   3 1.000000
M  ZZO   4 1.000000
M  ZZO   5 1.000000
M  ZZO   6 1.000000
M  ZZO   7 1.000000
M  ZZO   8 1.000000
M  ZZO   9 1.000000
M  ZZO  10 1.000000
M  ZZO  11 1.000000
M  ZZO  12 1.000000
M  ZZO  13 1.000000
M  ZZO  14 1.000000
M  ZZO  15 1.000000
M  ZZO  16 1.000000
M  ZZO  17 1.000000
M  ZZO  18 1.000000
M  ZZO  19 1.000000
M  ZZO  20 1.000000
M  ZZO  21 1.000000
M  ZZO  22 1.000000
M  ZZO  23 1.000000
M  ZZM   1 1
M  ZZI   1 111
M  ZZM   2 1
M  ZZI   2 113
M  ZZM   3 15
M  ZZI   3 240
M  ZZM   4 63
M  ZZI   4 104
M  ZZM   5 66
M  ZZI   5 222
M  ZZM   6 66
M  ZZI   6 222
M  ZZM   7 63
M  ZZI   7 104
M  ZZM   8 39
M  ZZI   8 215
M  ZZM   9 1
M  ZZI   9 111
M  ZZM  10 37
M  ZZI  10 124
M  ZZM  11 37
M  ZZI  11 125
M  ZZM  12 37
M  ZZI  12 124
M  ZZM  13 10
M  ZZI  13 191
M  ZZM  14 3
M  ZZI  14 121
M  ZZM  15 7
M  ZZI  15 81
M  ZZM  16 10
M  ZZI  16 192
M  ZZM  17 1
M  ZZI  17 112
M  ZZM  18 1
M  ZZI  18 112
M  ZZM  19 1
M  ZZI  19 112
M  ZZM  20 1
M  ZZI  20 112
M  ZZM  21 37
M  ZZI  21 125
M  ZZM  22 37
M  ZZI  22 125
M  ZZM  23 37
M  ZZI  23 125
M  END
> <COMPOUND_NAMES>
Compound 151 (S) (Page No: 60, Table No: 1)

> <Reference>
WO 2021/021761 A1

> <IC50_range_nM>
>5000

> <smiles>
C[C@@H](c1cccc(c1)NC(N1CCCC1)=O)Sc1nncn1C

$$$$
C[C@H](SC1=NN=CN1C)C1=CC(NC(=O)N2CCC(C)C2)=CC=C1
  MOLSOFT 03092310482D

 24 26  0  0  1  0  0  0  0  0999 V2000
    0.0000   -0.0000    0.0000 S   0  0  0
   -1.3130    0.7689    0.0000 C   0  0  0
    1.2893    0.7689    0.0000 C   0  0  2
   -2.6969    0.1656    0.0000 N   0  0  0
   -1.4786    2.2711    0.0000 N   0  0  0
    2.5786    0.0237    0.0000 C   0  0  0
    1.2775    2.2829    0.0000 C   0  0  0
   -3.7142    1.2893    0.0000 N   0  0  0
   -2.9572    2.5905    0.0000 C   0  0  0
   -0.3785    3.2884    0.0000 C   0  0  0
    3.8680    0.7925    0.0000 C   0  0  0
    2.5668   -1.4667    0.0000 C   0  0  0
    5.1573    0.0473    0.0000 C   0  0  0
    3.8561   -2.2120    0.0000 C   0  0  0
    6.4466    0.8162    0.0000 N   0  0  0
    5.1455   -1.4431    0.0000 C   0  0  0
    7.7359    0.0710    0.0000 C   0  0  0
    7.7241   -1.4194    0.0000 O   0  0  0
    9.0252    0.8398    0.0000 N   0  0  0
   10.3855    0.2366    0.0000 C   0  0  0
    9.1672    2.3421    0.0000 C   0  0  0
   11.3791    1.3603    0.0000 C   0  0  3
   10.6221    2.6614    0.0000 C   0  0  0
   12.8577    1.2183    0.0000 C   0  0  0
  1  2  1
  3  1  1  1  0
  2  4  2
  2  5  1
  3  6  1
  3  7  1
  4  8  1
  5  9  1
  5 10  1
  6 11  2
  6 12  1
 11 13  1
 12 14  2
 13 15  1
 13 16  2
 15 17  1
 17 18  2
 17 19  1
 19 20  1
 19 21  1
 22 20  1
 21 23  1
 22 24  1
  8  9  2
 14 16  1
 22 23  1
M  END
> <COMPOUND_NAMES>
Compound 41 (S) (Page No: 58, Table No: 1)

> <Reference>
WO 2021/021761 A1

> <IC50_range_nM>
>5000

> <smiles>
CC1CCN(C1)C(Nc1cccc(c1)[C@H](C)Sc1nncn1C)=O

$$$$
C[C@H](SC1=NN=CN1C)C1=CC(NC(=O)N2CCCCC2)=CC=C1
  MOLSOFT 03092310482D

 24 26  0  0  1  0  0  0  0  0999 V2000
    0.0000   -0.0000    0.0000 S   0  0  0
   -1.3123    0.7685    0.0000 C   0  0  0
    1.2887    0.7685    0.0000 C   0  0  2
   -2.6956    0.1655    0.0000 N   0  0  0
   -1.4778    2.2699    0.0000 N   0  0  0
    2.5773    0.0236    0.0000 C   0  0  0
    1.2768    2.2818    0.0000 C   0  0  0
   -3.7123    1.2887    0.0000 N   0  0  0
   -2.9557    2.5892    0.0000 C   0  0  0
   -0.3783    3.2867    0.0000 C   0  0  0
    3.8660    0.7921    0.0000 C   0  0  0
    2.5655   -1.4660    0.0000 C   0  0  0
    5.1547    0.0473    0.0000 C   0  0  0
    3.8542   -2.2108    0.0000 C   0  0  0
    6.4433    0.8158    0.0000 N   0  0  0
    5.1428   -1.4424    0.0000 C   0  0  0
    7.7320    0.0709    0.0000 C   0  0  0
    7.7202   -1.4187    0.0000 O   0  0  0
    9.0207    0.8394    0.0000 N   0  0  0
    9.0089    2.3527    0.0000 C   0  0  0
   10.3093    0.0946    0.0000 C   0  0  0
   10.2975    3.1094    0.0000 C   0  0  0
   11.5980    0.8631    0.0000 C   0  0  0
   11.5862    2.3764    0.0000 C   0  0  0
  1  2  1
  3  1  1  1  0
  2  4  2
  2  5  1
  3  6  1
  3  7  1
  4  8  1
  5  9  1
  5 10  1
  6 11  2
  6 12  1
 11 13  1
 12 14  2
 13 15  1
 13 16  2
 15 17  1
 17 18  2
 17 19  1
 19 20  1
 19 21  1
 20 22  1
 21 23  1
 22 24  1
  8  9  2
 14 16  1
 23 24  1
M  END
> <COMPOUND_NAMES>
Compound 124 (S) (Page No: 58, Table No: 1)

> <Reference>
WO 2021/021761 A1

> <IC50_range_nM>
>5000

> <smiles>
C[C@@H](c1cccc(c1)NC(N1CCCCC1)=O)Sc1nncn1C

$$$$
C[C@H](SC1=NN=CN1C)C1=CC(NC(=O)N(C)C2CCC2)=CC=C1
  MOLSOFT 03092310482D

 24 26  0  0  1  0  0  0  0  0999 V2000
    0.0000   -0.0000    0.0000 S   0  0  0
   -1.3128    0.7687    0.0000 C   0  0  0
    1.2891    0.7687    0.0000 C   0  0  2
   -2.6965    0.1656    0.0000 N   0  0  0
   -1.4784    2.2707    0.0000 N   0  0  0
    2.5782    0.0237    0.0000 C   0  0  0
    1.2773    2.2826    0.0000 C   0  0  0
   -3.7136    1.2891    0.0000 N   0  0  0
   -2.9567    2.5901    0.0000 C   0  0  0
   -0.3785    3.2879    0.0000 C   0  0  0
    3.8674    0.7924    0.0000 C   0  0  0
    2.5664   -1.4665    0.0000 C   0  0  0
    5.1565    0.0473    0.0000 C   0  0  0
    3.8555   -2.2116    0.0000 C   0  0  0
    6.4456    0.8160    0.0000 N   0  0  0
    5.1447   -1.4429    0.0000 C   0  0  0
    7.7347    0.0710    0.0000 C   0  0  0
    7.7229   -1.4192    0.0000 O   0  0  0
    9.0238    0.8397    0.0000 N   0  0  0
   10.3130    0.0946    0.0000 C   0  0  0
    9.0120    2.3535    0.0000 C   0  0  0
   11.7558    0.4967    0.0000 C   0  0  0
   10.6914   -1.3483    0.0000 C   0  0  0
   12.1343   -0.9461    0.0000 C   0  0  0
  1  2  1
  3  1  1  1  0
  2  4  2
  2  5  1
  3  6  1
  3  7  1
  4  8  1
  5  9  1
  5 10  1
  6 11  2
  6 12  1
 11 13  1
 12 14  2
 13 15  1
 13 16  2
 15 17  1
 17 18  2
 17 19  1
 19 20  1
 19 21  1
 20 22  1
 20 23  1
 22 24  1
  8  9  2
 14 16  1
 23 24  1
M  END
> <COMPOUND_NAMES>
Compound 49 (S) (Page No: 58, Table No: 1)

> <Reference>
WO 2021/021761 A1

> <IC50_range_nM>
>5000

> <smiles>
C[C@@H](c1cccc(c1)NC(N(C)C1CCC1)=O)Sc1nncn1C

$$$$
C18H25N5O2S
  MOLSOFT 03092310482D

 26 28  0  0  1  0  0  0  0  0999 V2000
    0.0000   -0.0000    0.0000 S   0  0  0
   -1.3130    0.7689    0.0000 C   0  0  0
    1.2894    0.7689    0.0000 C   0  0  2
   -2.6971    0.1656    0.0000 N   0  0  0
   -1.4787    2.2712    0.0000 N   0  0  0
    2.5788    0.0237    0.0000 C   0  0  0
    1.2776    2.2830    0.0000 C   0  0  0
   -3.7144    1.2894    0.0000 N   0  0  0
   -2.9573    2.5906    0.0000 C   0  0  0
   -0.3785    3.2885    0.0000 C   0  0  0
    3.8682    0.7926    0.0000 C   0  0  0
    2.5669   -1.4668    0.0000 C   0  0  0
    5.1576    0.0473    0.0000 C   0  0  0
    3.8563   -2.2121    0.0000 C   0  0  0
    6.4469    0.8162    0.0000 N   0  0  0
    5.1457   -1.4432    0.0000 C   0  0  0
    7.7363    0.0710    0.0000 C   0  0  0
    7.7245   -1.4195    0.0000 O   0  0  0
    9.0257    0.8399    0.0000 N   0  0  0
   10.3861    0.2366    0.0000 C   0  0  0
    9.1677    2.3422    0.0000 C   0  0  0
   11.3797    1.3604    0.0000 C   0  0  3
   10.6227    2.6616    0.0000 C   0  0  3
   12.8584    1.2184    0.0000 C   0  0  0
   11.2260    4.0456    0.0000 C   0  0  0
   13.4617   -0.1420    0.0000 O   0  0  0
  1  2  1
  3  1  1  1  0
  2  4  2
  2  5  1
  3  6  1
  3  7  1
  4  8  1
  5  9  1
  5 10  1
  6 11  2
  6 12  1
 11 13  1
 12 14  2
 13 15  1
 13 16  2
 15 17  1
 17 18  2
 17 19  1
 19 20  1
 19 21  1
 22 20  1
 23 21  1
 22 24  1
 23 25  1
 24 26  1
  8  9  2
 14 16  1
 22 23  1
M  END
> <COMPOUND_NAMES>
Compound 54 (S) (Page No: 58, Table No: 1)

> <Reference>
WO 2021/021761 A1

> <IC50_range_nM>
>5000

> <smiles>
CC1CN(CC1CO)C(Nc1cccc(c1)[C@H](C)Sc1nncn1C)=O

$$$$
C17H21F2N5OS
  MOLSOFT 03092310482D

 26 28  0  0  1  0  0  0  0  0999 V2000
    0.0000   -0.0000    0.0000 S   0  0  0
   -1.3130    0.7689    0.0000 C   0  0  0
    1.2894    0.7689    0.0000 C   0  0  2
   -2.6971    0.1656    0.0000 N   0  0  0
   -1.4787    2.2712    0.0000 N   0  0  0
    2.5788    0.0237    0.0000 C   0  0  0
    1.2776    2.2830    0.0000 C   0  0  0
   -3.7144    1.2894    0.0000 N   0  0  0
   -2.9573    2.5906    0.0000 C   0  0  0
   -0.3785    3.2885    0.0000 C   0  0  0
    3.8682    0.7926    0.0000 C   0  0  0
    2.5669   -1.4668    0.0000 C   0  0  0
    5.1575    0.0473    0.0000 C   0  0  0
    3.8563   -2.2121    0.0000 C   0  0  0
    6.4469    0.8162    0.0000 N   0  0  0
    5.1457   -1.4432    0.0000 C   0  0  0
    7.7363    0.0710    0.0000 C   0  0  0
    7.7245   -1.4195    0.0000 O   0  0  0
    9.0257    0.8399    0.0000 N   0  0  0
   10.3861    0.2366    0.0000 C   0  0  0
    9.1676    2.3422    0.0000 C   0  0  0
   11.3797    1.3604    0.0000 C   0  0  3
   10.6226    2.6616    0.0000 C   0  0  0
   12.8584    1.2184    0.0000 C   0  0  0
   13.4617   -0.1420    0.0000 F   0  0  0
   13.7337    2.4486    0.0000 F   0  0  0
  1  2  1
  3  1  1  1  0
  2  4  2
  2  5  1
  3  6  1
  3  7  1
  4  8  1
  5  9  1
  5 10  1
  6 11  2
  6 12  1
 11 13  1
 12 14  2
 13 15  1
 13 16  2
 15 17  1
 17 18  2
 17 19  1
 19 20  1
 19 21  1
 22 20  1
 21 23  1
 22 24  1
 24 25  1
 24 26  1
  8  9  2
 14 16  1
 22 23  1
M  END
> <COMPOUND_NAMES>
Compound 47 (S) (Page No: 58, Table No: 1)

> <Reference>
WO 2021/021761 A1

> <IC50_range_nM>
>5000

> <smiles>
C[C@@H](c1cccc(c1)NC(N1CCC(C1)C(F)F)=O)Sc1nncn1C

$$$$
C21H23N5OS
  MOLSOFT 03092310482D

 28 31  0  0  1  0  0  0  0  0999 V2000
    0.0000   -0.0000    0.0000 S   0  0  0
   -1.3142    0.7696    0.0000 C   0  0  0
    1.2905    0.7696    0.0000 C   0  0  2
   -2.6994    0.1658    0.0000 N   0  0  0
   -1.4799    2.2732    0.0000 N   0  0  0
    2.5810    0.0237    0.0000 C   0  0  0
    1.2787    2.2850    0.0000 C   0  0  0
   -3.7176    1.2905    0.0000 N   0  0  0
   -2.9599    2.5929    0.0000 C   0  0  0
   -0.3789    3.2914    0.0000 C   0  0  0
    3.8715    0.7932    0.0000 C   0  0  0
    2.5692   -1.4681    0.0000 C   0  0  0
    5.1620    0.0474    0.0000 C   0  0  0
    3.8597   -2.2140    0.0000 C   0  0  0
    6.4525    0.8169    0.0000 N   0  0  0
    5.1502   -1.4444    0.0000 C   0  0  0
    7.7430    0.0710    0.0000 C   0  0  0
    7.7312   -1.4207    0.0000 O   0  0  0
    9.0335    0.8406    0.0000 N   0  0  0
   10.4780    0.4617    0.0000 C   0  0  3
    9.4124    2.3087    0.0000 C   0  0  0
   11.2120   -0.8288    0.0000 C   0  0  0
   10.8568    1.9298    0.0000 C   0  0  0
   12.7038   -0.8169    0.0000 C   0  0  0
   10.4543   -2.1193    0.0000 C   0  0  0
   13.4378   -2.1074    0.0000 C   0  0  0
   11.1883   -3.4098    0.0000 C   0  0  0
   12.6801   -3.3979    0.0000 C   0  0  0
  1  2  1
  3  1  1  1  0
  2  4  2
  2  5  1
  3  6  1
  3  7  1
  4  8  1
  5  9  1
  5 10  1
  6 11  2
  6 12  1
 11 13  1
 12 14  2
 13 15  1
 13 16  2
 15 17  1
 17 18  2
 17 19  1
 20 19  1
 19 21  1
 20 22  1
 20 23  1
 22 24  2
 22 25  1
 24 26  1
 25 27  2
 26 28  2
  8  9  2
 14 16  1
 21 23  1
 27 28  1
M  END
> <COMPOUND_NAMES>
Compound 142 (S) (Page No: 59, Table No: 1)

> <Reference>
WO 2021/021761 A1

> <IC50_range_nM>
>5000

> <smiles>
C[C@@H](c1cccc(c1)NC(N1CCC1c1ccccc1)=O)Sc1nncn1C

$$$$
C22H25N5OS
  MOLSOFT 03092310482D

 29 32  0  0  1  0  0  0  0  0999 V2000
    0.0000   -0.0000    0.0000 S   0  0  0
   -1.3139    0.7694    0.0000 C   0  0  0
    1.2902    0.7694    0.0000 C   0  0  2
   -2.6988    0.1657    0.0000 N   0  0  0
   -1.4796    2.2727    0.0000 N   0  0  0
    2.5804    0.0237    0.0000 C   0  0  0
    1.2784    2.2845    0.0000 C   0  0  0
   -3.7168    1.2902    0.0000 N   0  0  0
   -2.9592    2.5923    0.0000 C   0  0  0
   -0.3788    3.2907    0.0000 C   0  0  0
    3.8707    0.7931    0.0000 C   0  0  0
    2.5686   -1.4678    0.0000 C   0  0  0
    5.1609    0.0473    0.0000 C   0  0  0
    3.8588   -2.2135    0.0000 C   0  0  0
    6.4511    0.8167    0.0000 N   0  0  0
    5.1490   -1.4441    0.0000 C   0  0  0
    7.7413    0.0710    0.0000 C   0  0  0
    7.7295   -1.4204    0.0000 O   0  0  0
    9.0315    0.8404    0.0000 N   0  0  0
   10.3928    0.2367    0.0000 C   0  0  0
    9.1736    2.3437    0.0000 C   0  0  0
   11.3871    1.3612    0.0000 C   0  0  3
   10.6295    2.6633    0.0000 C   0  0  0
   12.8667    1.2192    0.0000 C   0  0  0
   13.7426    2.4502    0.0000 C   0  0  0
   13.4704   -0.1420    0.0000 C   0  0  0
   15.2222    2.3082    0.0000 C   0  0  0
   14.9500   -0.2841    0.0000 C   0  0  0
   15.8259    0.9470    0.0000 C   0  0  0
  1  2  1
  3  1  1  1  0
  2  4  2
  2  5  1
  3  6  1
  3  7  1
  4  8  1
  5  9  1
  5 10  1
  6 11  2
  6 12  1
 11 13  1
 12 14  2
 13 15  1
 13 16  2
 15 17  1
 17 18  2
 17 19  1
 19 20  1
 19 21  1
 22 20  1
 21 23  1
 22 24  1
 24 25  2
 24 26  1
 25 27  1
 26 28  2
 27 29  2
  8  9  2
 14 16  1
 22 23  1
 28 29  1
M  END
> <COMPOUND_NAMES>
Compound 127 (S) (Page No: 59, Table No: 1)

> <Reference>
WO 2021/021761 A1

> <IC50_range_nM>
>5000

> <smiles>
C[C@@H](c1cccc(c1)NC(N1CCC(C1)c1ccccc1)=O)Sc1nncn1C

$$$$
C16H20FN5OS
  MOLSOFT 03092310482D

 24 26  0  0  1  0  0  0  0  0999 V2000
    0.0000   -0.0000    0.0000 S   0  0  0
   -1.3120    0.7683    0.0000 C   0  0  0
    1.2883    0.7683    0.0000 C   0  0  2
   -2.6948    0.1655    0.0000 N   0  0  0
   -1.4774    2.2693    0.0000 N   0  0  0
    2.5766    0.0236    0.0000 C   0  0  0
    1.2765    2.2811    0.0000 C   0  0  0
   -3.7113    1.2883    0.0000 N   0  0  0
   -2.9548    2.5884    0.0000 C   0  0  0
   -0.3782    3.2858    0.0000 C   0  0  0
    3.8649    0.7919    0.0000 C   0  0  0
    2.5648   -1.4656    0.0000 C   0  0  0
    5.1532    0.0473    0.0000 C   0  0  0
    3.8531   -2.2102    0.0000 C   0  0  0
    6.4416    0.8155    0.0000 N   0  0  0
    5.1414   -1.4420    0.0000 C   0  0  0
    7.7299    0.0709    0.0000 C   0  0  0
    7.7181   -1.4183    0.0000 O   0  0  0
    9.0182    0.8392    0.0000 N   0  0  0
    9.3964    2.3048    0.0000 C   0  0  0
   10.4601    0.4610    0.0000 C   0  0  0
   10.8384    1.9266    0.0000 C   0  0  0
   11.5712    3.2385    0.0000 F   0  0  0
   12.3276    1.9384    0.0000 C   0  0  0
  1  2  1
  3  1  1  1  0
  2  4  2
  2  5  1
  3  6  1
  3  7  1
  4  8  1
  5  9  1
  5 10  1
  6 11  2
  6 12  1
 11 13  1
 12 14  2
 13 15  1
 13 16  2
 15 17  1
 17 18  2
 17 19  1
 19 20  1
 19 21  1
 20 22  1
 22 23  1
 22 24  1
  8  9  2
 14 16  1
 21 22  1
M  END
> <COMPOUND_NAMES>
Compound 132 (S) (Page No: 59, Table No: 1)

> <Reference>
WO 2021/021761 A1

> <IC50_range_nM>
>5000

> <smiles>
C[C@@H](c1cccc(c1)NC(N1CC(C)(C1)F)=O)Sc1nncn1C

$$$$
C[C@H](SC1=NN=CN1C)C1=CC(NC(=O)N2CCN(C)CC2)=CC=C1
  MOLSOFT 03092310482D

 25 27  0  0  1  0  0  0  0  0999 V2000
    0.0000   -0.0000    0.0000 S   0  0  0
   -1.3125    0.7686    0.0000 C   0  0  0
    1.2888    0.7686    0.0000 C   0  0  2
   -2.6959    0.1655    0.0000 N   0  0  0
   -1.4780    2.2703    0.0000 N   0  0  0
    2.5777    0.0236    0.0000 C   0  0  0
    1.2770    2.2821    0.0000 C   0  0  0
   -3.7128    1.2888    0.0000 N   0  0  0
   -2.9561    2.5895    0.0000 C   0  0  0
   -0.3784    3.2871    0.0000 C   0  0  0
    3.8665    0.7922    0.0000 C   0  0  0
    2.5659   -1.4662    0.0000 C   0  0  0
    5.1554    0.0473    0.0000 C   0  0  0
    3.8547   -2.2111    0.0000 C   0  0  0
    6.4442    0.8159    0.0000 N   0  0  0
    5.1436   -1.4426    0.0000 C   0  0  0
    7.7331    0.0709    0.0000 C   0  0  0
    7.7213   -1.4189    0.0000 O   0  0  0
    9.0219    0.8395    0.0000 N   0  0  0
    9.0101    2.3530    0.0000 C   0  0  0
   10.3108    0.0946    0.0000 C   0  0  0
   10.2989    3.1098    0.0000 C   0  0  0
   11.5996    0.8632    0.0000 C   0  0  0
   11.5878    2.3767    0.0000 N   0  0  0
   12.8766    3.1334    0.0000 C   0  0  0
  1  2  1
  3  1  1  1  0
  2  4  2
  2  5  1
  3  6  1
  3  7  1
  4  8  1
  5  9  1
  5 10  1
  6 11  2
  6 12  1
 11 13  1
 12 14  2
 13 15  1
 13 16  2
 15 17  1
 17 18  2
 17 19  1
 19 20  1
 19 21  1
 20 22  1
 21 23  1
 22 24  1
 24 25  1
  8  9  2
 14 16  1
 23 24  1
M  END
> <COMPOUND_NAMES>
Compound 155 (S) (Page No: 60, Table No: 1)

> <Reference>
WO 2021/021761 A1

> <IC50_range_nM>
>5000

> <smiles>
C[C@@H](c1cccc(c1)NC(N1CCN(C)CC1)=O)Sc1nncn1C

$$$$
C18H24N6O2S
  MOLSOFT 03092310482D

 27 29  0  0  1  0  0  0  0  0999 V2000
    0.0000   -0.0000    0.0000 S   0  0  0
   -1.3139    0.7576    0.0000 C   0  0  0
    1.2902    0.7576    0.0000 C   0  0  2
   -2.6988    0.1539    0.0000 N   0  0  0
   -1.4796    2.2608    0.0000 N   0  0  0
    2.5804    0.0118    0.0000 C   0  0  0
    1.2784    2.2727    0.0000 C   0  0  0
   -3.7167    1.2784    0.0000 N   0  0  0
   -2.9592    2.5804    0.0000 C   0  0  0
   -0.3788    3.2788    0.0000 C   0  0  0
    3.8706    0.7694    0.0000 C   0  0  0
    2.5686   -1.4796    0.0000 C   0  0  0
    5.1608    0.0237    0.0000 C   0  0  0
    3.8588   -2.2135    0.0000 C   0  0  0
    6.4510    0.7812    0.0000 N   0  0  0
    5.1490   -1.4678    0.0000 C   0  0  0
    7.7412    0.0355    0.0000 C   0  0  0
    7.7294   -1.4559    0.0000 O   0  0  0
    9.0314    0.7931    0.0000 N   0  0  0
    9.0196    2.3082    0.0000 C   0  0  0
   10.3216    0.0473    0.0000 C   0  0  0
   10.3098    3.0657    0.0000 C   0  0  0
   11.6118    0.8049    0.0000 C   0  0  0
   11.6000    2.3318    0.0000 N   0  0  0
   12.8902    3.0894    0.0000 C   0  0  0
   12.8784    4.6045    0.0000 O   0  0  0
   14.1804    2.3555    0.0000 C   0  0  0
  1  2  1
  3  1  1  1  0
  2  4  2
  2  5  1
  3  6  1
  3  7  1
  4  8  1
  5  9  1
  5 10  1
  6 11  2
  6 12  1
 11 13  1
 12 14  2
 13 15  1
 13 16  2
 15 17  1
 17 18  2
 17 19  1
 19 20  1
 19 21  1
 20 22  1
 21 23  1
 22 24  1
 24 25  1
 25 26  2
 25 27  1
  8  9  2
 14 16  1
 23 24  1
M  END
> <COMPOUND_NAMES>
Compound 162 (S) (Page No: 60, Table No: 1)

> <Reference>
WO 2021/021761 A1

> <IC50_range_nM>
>5000

> <smiles>
CC(N1CCN(CC1)C(Nc1cccc(c1)[C@H](C)Sc1nncn1C)=O)=O

$$$$
C18H24N6O2S
  MOLSOFT 03092310482D

 27 29  0  0  1  0  0  0  0  0999 V2000
    0.0000   -0.0000    0.0000 S   0  0  0
   -1.3139    0.7576    0.0000 C   0  0  0
    1.2902    0.7576    0.0000 C   0  0  2
   -2.6988    0.1539    0.0000 N   0  0  0
   -1.4796    2.2608    0.0000 N   0  0  0
    2.5804    0.0118    0.0000 C   0  0  0
    1.2784    2.2727    0.0000 C   0  0  0
   -3.7167    1.2784    0.0000 N   0  0  0
   -2.9592    2.5804    0.0000 C   0  0  0
   -0.3788    3.2788    0.0000 C   0  0  0
    3.8706    0.7694    0.0000 C   0  0  0
    2.5686   -1.4796    0.0000 C   0  0  0
    5.1608    0.0237    0.0000 C   0  0  0
    3.8588   -2.2135    0.0000 C   0  0  0
    6.4510    0.7812    0.0000 N   0  0  0
    5.1490   -1.4678    0.0000 C   0  0  0
    7.7412    0.0355    0.0000 C   0  0  0
    7.7294   -1.4559    0.0000 O   0  0  0
    9.0314    0.7931    0.0000 N   0  0  0
   10.3216    0.0473    0.0000 C   0  0  0
    9.0196    2.3082    0.0000 C   0  0  0
   11.6119    0.8049    0.0000 C   0  0  0
   10.3098    3.0657    0.0000 C   0  0  3
   12.9021    0.0592    0.0000 O   0  0  0
   11.6000    2.3200    0.0000 N   0  0  0
   10.2980    4.5808    0.0000 C   0  0  0
   12.8902    3.0776    0.0000 C   0  0  0
  1  2  1
  3  1  1  1  0
  2  4  2
  2  5  1
  3  6  1
  3  7  1
  4  8  1
  5  9  1
  5 10  1
  6 11  2
  6 12  1
 11 13  1
 12 14  2
 13 15  1
 13 16  2
 15 17  1
 17 18  2
 17 19  1
 19 20  1
 19 21  1
 20 22  1
 23 21  1
 22 24  2
 22 25  1
 23 26  1
 25 27  1
  8  9  2
 14 16  1
 23 25  1
M  END
> <COMPOUND_NAMES>
Compound 123 (S) (Page No: 58, Table No: 1)

> <Reference>
WO 2021/021761 A1

> <IC50_range_nM>
>5000

> <smiles>
CC1CN(CC(N1C)=O)C(Nc1cccc(c1)[C@H](C)Sc1nncn1C)=O

$$$$
C19H24N6O2S
  MOLSOFT 03092310482D

 28 31  0  0  1  0  0  0  0  0999 V2000
    0.0000   -0.0000    0.0000 S   0  0  0
   -1.3129    0.7688    0.0000 C   0  0  0
    1.2892    0.7688    0.0000 C   0  0  2
   -2.6967    0.1656    0.0000 N   0  0  0
   -1.4785    2.2709    0.0000 N   0  0  0
    2.5784    0.0237    0.0000 C   0  0  0
    1.2774    2.2827    0.0000 C   0  0  0
   -3.7139    1.2892    0.0000 N   0  0  0
   -2.9569    2.5903    0.0000 C   0  0  0
   -0.3785    3.2881    0.0000 C   0  0  0
    3.8676    0.7925    0.0000 C   0  0  0
    2.5666   -1.4666    0.0000 C   0  0  0
    5.1569    0.0473    0.0000 C   0  0  0
    3.8558   -2.2118    0.0000 C   0  0  0
    6.4461    0.8161    0.0000 N   0  0  0
    5.1450   -1.4430    0.0000 C   0  0  0
    7.7353    0.0710    0.0000 C   0  0  0
    7.7235   -1.4193    0.0000 O   0  0  0
    9.0245    0.8398    0.0000 N   0  0  0
   10.3137    0.0946    0.0000 C   0  0  0
    9.0127    2.3537    0.0000 C   0  0  0
   11.6029    0.8634    0.0000 C   0  0  0
   10.3019    3.1107    0.0000 C   0  0  0
   12.8922    0.1183    0.0000 O   0  0  0
   11.5911    2.3774    0.0000 N   0  0  0
   12.8803    3.1343    0.0000 C   0  0  0
   13.6136    4.4472    0.0000 C   0  0  0
   14.3706    3.1462    0.0000 C   0  0  0
  1  2  1
  3  1  1  1  0
  2  4  2
  2  5  1
  3  6  1
  3  7  1
  4  8  1
  5  9  1
  5 10  1
  6 11  2
  6 12  1
 11 13  1
 12 14  2
 13 15  1
 13 16  2
 15 17  1
 17 18  2
 17 19  1
 19 20  1
 19 21  1
 20 22  1
 21 23  1
 22 24  2
 22 25  1
 25 26  1
 26 27  1
 26 28  1
  8  9  2
 14 16  1
 23 25  1
 27 28  1
M  END
> <COMPOUND_NAMES>
Compound 156 (S) (Page No: 60, Table No: 1)

> <Reference>
WO 2021/021761 A1

> <IC50_range_nM>
>5000

> <smiles>
C[C@@H](c1cccc(c1)NC(N1CCN(C2CC2)C(C1)=O)=O)Sc1nncn1C

$$$$
CC(CO)N(C)C(=O)NC1=CC=CC(=C1)[C@H](C)SC1=NN=CN1C
  MOLSOFT 03092310482D

 24 25  0  0  1  0  0  0  0  0999 V2000
    0.0000   -0.0000    0.0000 S   0  0  0
   -0.3281   -1.4529    0.0000 C   0  0  0
    1.4177    0.4687    0.0000 C   0  0  2
    0.6561   -2.5542    0.0000 N   0  0  0
   -1.7106   -2.0504    0.0000 N   0  0  0
    1.7224    1.9450    0.0000 C   0  0  0
    2.5191   -0.5155    0.0000 C   0  0  0
   -0.1055   -3.8431    0.0000 N   0  0  0
   -1.5700   -3.5267    0.0000 C   0  0  0
   -3.0229   -1.2888    0.0000 C   0  0  0
    0.5976    2.9643    0.0000 C   0  0  0
    3.1284    2.4136    0.0000 C   0  0  0
    0.9022    4.4406    0.0000 C   0  0  0
    3.4330    3.8900    0.0000 C   0  0  0
   -0.2226    5.4600    0.0000 N   0  0  0
    2.3082    4.9210    0.0000 C   0  0  0
   -1.6521    5.0148    0.0000 C   0  0  0
   -1.9801    3.5619    0.0000 O   0  0  0
   -2.7769    6.0224    0.0000 N   0  0  0
   -4.2063    5.5772    0.0000 C   0  0  3
   -2.4722    7.4987    0.0000 C   0  0  0
   -5.3311    6.5965    0.0000 C   0  0  0
   -4.5344    4.1243    0.0000 C   0  0  0
   -6.7605    6.1396    0.0000 O   0  0  0
  1  2  1
  3  1  1  6  0
  2  4  2
  2  5  1
  3  6  1
  3  7  1
  4  8  1
  5  9  1
  5 10  1
  6 11  2
  6 12  1
 11 13  1
 12 14  2
 13 15  1
 13 16  2
 15 17  1
 17 18  2
 17 19  1
 20 19  1
 19 21  1
 20 22  1
 20 23  1
 22 24  1
  8  9  2
 14 16  1
M  END
> <COMPOUND_NAMES>
Compound 143 (S) (Page No: 59, Table No: 1)

> <Reference>
WO 2021/021761 A1

> <IC50_range_nM>
>5000

> <smiles>
CC(CO)N(C)C(Nc1cccc(c1)[C@H](C)Sc1nncn1C)=O

$$$$
C[C@H](SC1=NN=CN1C)C1=CC(NC(=O)N2CCOCC2)=CC=C1
  MOLSOFT 03092310482D

 24 26  0  0  1  0  0  0  0  0999 V2000
    0.0000   -0.0000    0.0000 S   0  0  0
   -1.3123    0.7685    0.0000 C   0  0  0
    1.2887    0.7685    0.0000 C   0  0  2
   -2.6956    0.1655    0.0000 N   0  0  0
   -1.4778    2.2699    0.0000 N   0  0  0
    2.5773    0.0236    0.0000 C   0  0  0
    1.2768    2.2818    0.0000 C   0  0  0
   -3.7123    1.2887    0.0000 N   0  0  0
   -2.9557    2.5892    0.0000 C   0  0  0
   -0.3783    3.2867    0.0000 C   0  0  0
    3.8660    0.7921    0.0000 C   0  0  0
    2.5655   -1.4660    0.0000 C   0  0  0
    5.1547    0.0473    0.0000 C   0  0  0
    3.8542   -2.2108    0.0000 C   0  0  0
    6.4433    0.8158    0.0000 N   0  0  0
    5.1428   -1.4424    0.0000 C   0  0  0
    7.7320    0.0709    0.0000 C   0  0  0
    7.7202   -1.4187    0.0000 O   0  0  0
    9.0207    0.8394    0.0000 N   0  0  0
    9.0089    2.3527    0.0000 C   0  0  0
   10.3093    0.0946    0.0000 C   0  0  0
   10.2975    3.1094    0.0000 C   0  0  0
   11.5980    0.8631    0.0000 C   0  0  0
   11.5862    2.3764    0.0000 O   0  0  0
  1  2  1
  3  1  1  1  0
  2  4  2
  2  5  1
  3  6  1
  3  7  1
  4  8  1
  5  9  1
  5 10  1
  6 11  2
  6 12  1
 11 13  1
 12 14  2
 13 15  1
 13 16  2
 15 17  1
 17 18  2
 17 19  1
 19 20  1
 19 21  1
 20 22  1
 21 23  1
 22 24  1
  8  9  2
 14 16  1
 23 24  1
M  END
> <COMPOUND_NAMES>
Compound 128 (S) (Page No: 59, Table No: 1)

> <Reference>
WO 2021/021761 A1

> <IC50_range_nM>
>5000

> <smiles>
C[C@@H](c1cccc(c1)NC(N1CCOCC1)=O)Sc1nncn1C

$$$$
C18H25N5O2S
  MOLSOFT 03092310482D

 26 28  0  0  1  0  0  0  0  0999 V2000
    0.0000   -0.0000    0.0000 S   0  0  0
   -1.3136    0.7574    0.0000 C   0  0  0
    1.2899    0.7574    0.0000 C   0  0  2
   -2.6982    0.1538    0.0000 N   0  0  0
   -1.4792    2.2603    0.0000 N   0  0  0
    2.5798    0.0118    0.0000 C   0  0  0
    1.2781    2.2721    0.0000 C   0  0  0
   -3.7159    1.2781    0.0000 N   0  0  0
   -2.9585    2.5798    0.0000 C   0  0  0
   -0.3787    3.2780    0.0000 C   0  0  0
    3.8697    0.7692    0.0000 C   0  0  0
    2.5680   -1.4792    0.0000 C   0  0  0
    5.1596    0.0237    0.0000 C   0  0  0
    3.8579   -2.2130    0.0000 C   0  0  0
    6.4495    0.7810    0.0000 N   0  0  0
    5.1478   -1.4674    0.0000 C   0  0  0
    7.7394    0.0355    0.0000 C   0  0  0
    7.7276   -1.4556    0.0000 O   0  0  0
    9.0293    0.7929    0.0000 N   0  0  0
    9.0175    2.3076    0.0000 C   0  0  0
   10.3192    0.0473    0.0000 C   0  0  0
   10.3074    3.0650    0.0000 C   0  0  3
   11.6091    0.8047    0.0000 C   0  0  3
   11.5973    2.3313    0.0000 O   0  0  0
   10.2956    4.5798    0.0000 C   0  0  0
   12.8991    0.0592    0.0000 C   0  0  0
  1  2  1
  3  1  1  1  0
  2  4  2
  2  5  1
  3  6  1
  3  7  1
  4  8  1
  5  9  1
  5 10  1
  6 11  2
  6 12  1
 11 13  1
 12 14  2
 13 15  1
 13 16  2
 15 17  1
 17 18  2
 17 19  1
 19 20  1
 19 21  1
 22 20  1
 23 21  1
 22 24  1
 22 25  1
 23 26  1
  8  9  2
 14 16  1
 23 24  1
M  END
> <COMPOUND_NAMES>
Compound 42 (S) (Page No: 58, Table No: 1)

> <Reference>
WO 2021/021761 A1

> <IC50_range_nM>
>5000

> <smiles>
CC1CN(CC(C)O1)C(Nc1cccc(c1)[C@H](C)Sc1nncn1C)=O

$$$$
C19H27N5O2S
  MOLSOFT 03092310482D

 27 29  0  0  1  0  0  0  0  0999 V2000
    0.0000   -0.0000    0.0000 S   0  0  0
   -0.3279   -1.4522    0.0000 C   0  0  0
    1.4171    0.4684    0.0000 C   0  0  2
    0.6558   -2.5530    0.0000 N   0  0  0
   -1.7098   -2.0495    0.0000 N   0  0  0
    1.7215    1.9441    0.0000 C   0  0  0
    2.5179   -0.5153    0.0000 C   0  0  0
   -0.1054   -3.8413    0.0000 N   0  0  0
   -1.5693   -3.5251    0.0000 C   0  0  0
   -3.0215   -1.2882    0.0000 C   0  0  0
    0.5973    2.9629    0.0000 C   0  0  0
    3.1269    2.4125    0.0000 C   0  0  0
    0.9018    4.4385    0.0000 C   0  0  0
    3.4314    3.8881    0.0000 C   0  0  0
   -0.2225    5.4574    0.0000 N   0  0  0
    2.3071    4.9187    0.0000 C   0  0  0
   -1.6513    5.0124    0.0000 C   0  0  0
   -1.9792    3.5602    0.0000 O   0  0  0
   -2.7756    6.0196    0.0000 N   0  0  0
   -2.4711    7.4952    0.0000 C   0  0  0
   -4.2043    5.5745    0.0000 C   0  0  0
   -3.5953    8.5023    0.0000 C   0  0  3
   -5.3286    6.5934    0.0000 C   0  0  0
   -5.0241    8.0573    0.0000 O   0  0  0
   -3.2908    9.9779    0.0000 C   0  0  0
   -4.4151   10.9968    0.0000 C   0  0  0
   -1.8855   10.4464    0.0000 C   0  0  0
  1  2  1
  3  1  1  6  0
  2  4  2
  2  5  1
  3  6  1
  3  7  1
  4  8  1
  5  9  1
  5 10  1
  6 11  2
  6 12  1
 11 13  1
 12 14  2
 13 15  1
 13 16  2
 15 17  1
 17 18  2
 17 19  1
 19 20  1
 19 21  1
 22 20  1
 21 23  1
 22 24  1
 22 25  1
 25 26  1
 25 27  1
  8  9  2
 14 16  1
 23 24  1
M  END
> <COMPOUND_NAMES>
Compound 51 (S) (Page No: 58, Table No: 1)

> <Reference>
WO 2021/021761 A1

> <IC50_range_nM>
>5000

> <smiles>
CC(C)C1CN(CCO1)C(Nc1cccc(c1)[C@H](C)Sc1nncn1C)=O

$$$$
C[C@H](SC1=NN=CN1C)C1=CC(NC(=O)N2CCOCC2CO)=CC=C1
  MOLSOFT 03092310482D

 26 28  0  0  1  0  0  0  0  0999 V2000
    0.0000   -0.0000    0.0000 S   0  0  0
   -1.3130    0.7689    0.0000 C   0  0  0
    1.2893    0.7689    0.0000 C   0  0  2
   -2.6970    0.1656    0.0000 N   0  0  0
   -1.4786    2.2711    0.0000 N   0  0  0
    2.5787    0.0237    0.0000 C   0  0  0
    1.2775    2.2830    0.0000 C   0  0  0
   -3.7142    1.2893    0.0000 N   0  0  0
   -2.9572    2.5905    0.0000 C   0  0  0
   -0.3785    3.2884    0.0000 C   0  0  0
    3.8680    0.7925    0.0000 C   0  0  0
    2.5668   -1.4668    0.0000 C   0  0  0
    5.1574    0.0473    0.0000 C   0  0  0
    3.8562   -2.2120    0.0000 C   0  0  0
    6.4467    0.8162    0.0000 N   0  0  0
    5.1455   -1.4431    0.0000 C   0  0  0
    7.7360    0.0710    0.0000 C   0  0  0
    7.7242   -1.4195    0.0000 O   0  0  0
    9.0254    0.8398    0.0000 N   0  0  0
   10.3147    0.0946    0.0000 C   0  0  3
    9.0135    2.3539    0.0000 C   0  0  0
   11.6041    0.8635    0.0000 C   0  0  0
   10.3029   -1.3958    0.0000 C   0  0  0
   10.3029    3.1110    0.0000 C   0  0  0
   11.5922    2.3776    0.0000 O   0  0  0
   11.5922   -2.1410    0.0000 O   0  0  0
  1  2  1
  3  1  1  1  0
  2  4  2
  2  5  1
  3  6  1
  3  7  1
  4  8  1
  5  9  1
  5 10  1
  6 11  2
  6 12  1
 11 13  1
 12 14  2
 13 15  1
 13 16  2
 15 17  1
 17 18  2
 17 19  1
 20 19  1
 19 21  1
 20 22  1
 20 23  1
 21 24  1
 22 25  1
 23 26  1
  8  9  2
 14 16  1
 24 25  1
M  END
> <COMPOUND_NAMES>
Compound 146 (S) (Page No: 59, Table No: 1)

> <Reference>
WO 2021/021761 A1

> <IC50_range_nM>
>5000

> <smiles>
C[C@@H](c1cccc(c1)NC(N1CCOCC1CO)=O)Sc1nncn1C

$$$$
C18H22F3N5O2S
  MOLSOFT 03092310482D

 29 31  0  0  1  0  0  0  0  0999 V2000
    0.0000   -0.0000    0.0000 S   0  0  0
   -1.3126    0.7568    0.0000 C   0  0  0
    1.2890    0.7568    0.0000 C   0  0  2
   -2.6962    0.1537    0.0000 N   0  0  0
   -1.4782    2.2587    0.0000 N   0  0  0
    2.5779    0.0237    0.0000 C   0  0  0
    1.2771    2.2705    0.0000 C   0  0  0
   -3.7132    1.2771    0.0000 N   0  0  0
   -2.9564    2.5779    0.0000 C   0  0  0
   -0.3784    3.2756    0.0000 C   0  0  0
    2.5661   -1.4664    0.0000 C   0  0  0
    3.8669    0.7805    0.0000 C   0  0  0
    3.8551   -2.2114    0.0000 C   0  0  0
    5.1559    0.0473    0.0000 C   0  0  0
    3.8433   -3.7014    0.0000 N   0  0  0
    5.1441   -1.4545    0.0000 C   0  0  0
    2.5306   -4.4464    0.0000 C   0  0  0
    1.2180   -3.6895    0.0000 O   0  0  0
    2.5188   -5.9364    0.0000 N   0  0  0
    1.2062   -6.6696    0.0000 C   0  0  0
    3.8078   -6.6696    0.0000 C   0  0  0
    1.1944   -8.1596    0.0000 C   0  0  3
    3.7960   -8.1596    0.0000 C   0  0  0
    2.4833   -8.8927    0.0000 O   0  0  0
   -0.1183   -8.8927    0.0000 C   0  0  0
   -1.4309   -8.1359    0.0000 C   0  0  0
   -0.6977   -6.8233    0.0000 F   0  0  0
   -2.7435   -7.3791    0.0000 F   0  0  0
   -2.1877   -9.4249    0.0000 F   0  0  0
  1  2  1
  3  1  1  1  0
  2  4  2
  2  5  1
  3  6  1
  3  7  1
  4  8  1
  5  9  1
  5 10  1
  6 11  2
  6 12  1
 11 13  1
 12 14  2
 13 15  1
 13 16  2
 15 17  1
 17 18  2
 17 19  1
 19 20  1
 19 21  1
 22 20  1
 21 23  1
 22 24  1
 22 25  1
 25 26  1
 26 27  1
 26 28  1
 26 29  1
  8  9  2
 14 16  1
 23 24  1
M  END
> <COMPOUND_NAMES>
Compound 131 (S) (Page No: 59, Table No: 1)

> <Reference>
WO 2021/021761 A1

> <IC50_range_nM>
>5000

> <smiles>
C[C@@H](c1cccc(c1)NC(N1CCOC(CC(F)(F)F)C1)=O)Sc1nncn1C

$$$$
C20H27N5O3S
  MOLSOFT 03092310482D

 29 32  0  0  1  0  0  0  0  0999 V2000
    0.0000   -0.0000    0.0000 S   0  0  0
   -1.3139    0.7694    0.0000 C   0  0  0
    1.2903    0.7694    0.0000 C   0  0  1
   -2.6989    0.1657    0.0000 N   0  0  0
   -1.4797    2.2728    0.0000 N   0  0  0
    2.5805    0.0237    0.0000 C   0  0  0
    1.2784    2.2846    0.0000 C   0  0  0
   -3.7169    1.2903    0.0000 N   0  0  0
   -2.9593    2.5924    0.0000 C   0  0  0
   -0.3788    3.2908    0.0000 C   0  0  0
    3.8708    0.7931    0.0000 C   0  0  0
    2.5687   -1.4678    0.0000 C   0  0  0
    5.1611    0.0473    0.0000 C   0  0  0
    3.8590   -2.2136    0.0000 C   0  0  0
    6.4514    0.8168    0.0000 N   0  0  0
    5.1493   -1.4442    0.0000 C   0  0  0
    7.7416    0.0710    0.0000 C   0  0  0
    7.7298   -1.4205    0.0000 O   0  0  0
    9.0319    0.8405    0.0000 N   0  0  0
   10.3222    0.0947    0.0000 C   0  0  0
    9.0201    2.3556    0.0000 C   0  0  0
   11.6125    0.8641    0.0000 C   0  0  2
   10.3104    3.1132    0.0000 C   0  0  0
   11.6006    2.3793    0.0000 O   0  0  0
   12.9027    0.1184    0.0000 C   0  0  1
   13.0448   -1.3613    0.0000 O   0  0  0
   14.2640    0.7458    0.0000 C   0  0  0
   14.5008   -1.6572    0.0000 C   0  0  0
   15.2584   -0.3551    0.0000 C   0  0  0
  1  2  1
  3  1  1  6  0
  2  4  2
  2  5  1
  3  6  1
  3  7  1
  4  8  1
  5  9  1
  5 10  1
  6 11  2
  6 12  1
 11 13  1
 12 14  2
 13 15  1
 13 16  2
 15 17  1
 17 18  2
 17 19  1
 19 20  1
 19 21  1
 22 20  1
 21 23  1
 22 24  1  6  0
 22 25  1
 25 26  1  6  0
 25 27  1
 26 28  1
 27 29  1
  8  9  2
 14 16  1
 23 24  1
 28 29  1
M  END
> <COMPOUND_NAMES>
Compound 136 (Stereo) (Page No: 59, Table No: 1)

> <Reference>
WO 2021/021761 A1

> <IC50_range_nM>
>5000

> <smiles>
C[C@H](c1cccc(c1)NC(N1CCO[C@@H](C1)[C@@H]1CCCO1)=O)Sc1nncn1C

$$$$
C20H27N5O3S
  MOLSOFT 03092310482D

 29 32  0  0  1  0  0  0  0  0999 V2000
    0.0000   -0.0000    0.0000 S   0  0  0
   -1.3139    0.7694    0.0000 C   0  0  0
    1.2903    0.7694    0.0000 C   0  0  2
   -2.6989    0.1657    0.0000 N   0  0  0
   -1.4797    2.2728    0.0000 N   0  0  0
    2.5805    0.0237    0.0000 C   0  0  0
    1.2784    2.2846    0.0000 C   0  0  0
   -3.7169    1.2903    0.0000 N   0  0  0
   -2.9593    2.5924    0.0000 C   0  0  0
   -0.3788    3.2908    0.0000 C   0  0  0
    3.8708    0.7931    0.0000 C   0  0  0
    2.5687   -1.4678    0.0000 C   0  0  0
    5.1611    0.0473    0.0000 C   0  0  0
    3.8590   -2.2136    0.0000 C   0  0  0
    6.4514    0.8168    0.0000 N   0  0  0
    5.1493   -1.4442    0.0000 C   0  0  0
    7.7416    0.0710    0.0000 C   0  0  0
    7.7298   -1.4205    0.0000 O   0  0  0
    9.0319    0.8405    0.0000 N   0  0  0
   10.3222    0.0947    0.0000 C   0  0  0
    9.0201    2.3556    0.0000 C   0  0  0
   11.6125    0.8641    0.0000 C   0  0  2
   10.3104    3.1132    0.0000 C   0  0  0
   11.6006    2.3793    0.0000 O   0  0  0
   12.9027    0.1184    0.0000 C   0  0  2
   13.0448   -1.3613    0.0000 O   0  0  0
   14.2640    0.7458    0.0000 C   0  0  0
   14.5008   -1.6572    0.0000 C   0  0  0
   15.2584   -0.3551    0.0000 C   0  0  0
  1  2  1
  3  1  1  1  0
  2  4  2
  2  5  1
  3  6  1
  3  7  1
  4  8  1
  5  9  1
  5 10  1
  6 11  2
  6 12  1
 11 13  1
 12 14  2
 13 15  1
 13 16  2
 15 17  1
 17 18  2
 17 19  1
 19 20  1
 19 21  1
 22 20  1
 21 23  1
 22 24  1  6  0
 22 25  1
 25 26  1  1  0
 25 27  1
 26 28  1
 27 29  1
  8  9  2
 14 16  1
 23 24  1
 28 29  1
M  END
> <COMPOUND_NAMES>
Compound 135 (Stereo) (Page No: 59, Table No: 1)

> <Reference>
WO 2021/021761 A1

> <IC50_range_nM>
>5000

> <smiles>
C[C@@H](c1cccc(c1)NC(N1CCO[C@@H](C1)[C@H]1CCCO1)=O)Sc1nncn1C

$$$$
C16H18F3N5O2S
  MOLSOFT 03092310482D

 27 29  0  0  1  0  0  0  0  0999 V2000
    0.0000   -0.0000    0.0000 S   0  0  0
   -1.3129    0.7688    0.0000 C   0  0  0
    1.2892    0.7688    0.0000 C   0  0  2
   -2.6968    0.1656    0.0000 N   0  0  0
   -1.4785    2.2709    0.0000 N   0  0  0
    2.5785    0.0237    0.0000 C   0  0  0
    1.2774    2.2828    0.0000 C   0  0  0
   -3.7139    1.2892    0.0000 N   0  0  0
   -2.9570    2.5903    0.0000 C   0  0  0
   -0.3785    3.2881    0.0000 C   0  0  0
    3.8677    0.7925    0.0000 C   0  0  0
    2.5666   -1.4667    0.0000 C   0  0  0
    5.1569    0.0473    0.0000 C   0  0  0
    3.8559   -2.2118    0.0000 C   0  0  0
    6.4462    0.8161    0.0000 N   0  0  0
    5.1451   -1.4430    0.0000 C   0  0  0
    7.7354    0.0710    0.0000 C   0  0  0
    7.7236   -1.4193    0.0000 O   0  0  0
    9.0247    0.8398    0.0000 N   0  0  0
    9.4031    2.3064    0.0000 C   0  0  0
   10.4677    0.4613    0.0000 C   0  0  0
   10.8461    1.9279    0.0000 C   0  0  0
   12.1354    2.6849    0.0000 O   0  0  0
   13.4246    1.9516    0.0000 C   0  0  0
   12.6676    0.6624    0.0000 F   0  0  0
   14.7139    1.2064    0.0000 F   0  0  0
   14.1579    3.2645    0.0000 F   0  0  0
  1  2  1
  3  1  1  1  0
  2  4  2
  2  5  1
  3  6  1
  3  7  1
  4  8  1
  5  9  1
  5 10  1
  6 11  2
  6 12  1
 11 13  1
 12 14  2
 13 15  1
 13 16  2
 15 17  1
 17 18  2
 17 19  1
 19 20  1
 19 21  1
 20 22  1
 22 23  1
 23 24  1
 24 25  1
 24 26  1
 24 27  1
  8  9  2
 14 16  1
 21 22  1
M  END
> <COMPOUND_NAMES>
Compound 52 (S) (Page No: 52, Table No: 1)

> <Reference>
WO 2021/021761 A1

> <IC50_range_nM>
>5000

> <smiles>
C[C@@H](c1cccc(c1)NC(N1CC(C1)OC(F)(F)F)=O)Sc1nncn1C

$$$$
C16H21N5O3S2
  MOLSOFT 03092310482D

 26 28  0  0  1  0  0  0  0  0999 V2000
    0.0000   -0.0000    0.0000 S   0  0  0
    1.4826    0.0118    0.0000 O   0  0  0
    0.7295    1.3061    0.0000 O   0  0  0
   -1.3061    0.7531    0.0000 C   0  0  0
   -0.0118   -1.4826    0.0000 C   0  0  0
   -2.6122    0.0235    0.0000 C   0  0  0
   -1.3179   -2.2239    0.0000 C   0  0  0
   -2.6240   -1.4591    0.0000 N   0  0  0
   -3.9301   -2.2004    0.0000 C   0  0  0
   -3.9419   -3.6830    0.0000 O   0  0  0
   -5.2362   -1.4355    0.0000 N   0  0  0
   -6.5423   -2.1768    0.0000 C   0  0  0
   -7.8484   -1.4120    0.0000 C   0  0  0
   -6.5541   -3.6595    0.0000 C   0  0  0
   -9.1545   -2.1533    0.0000 C   0  0  0
   -7.8602   -4.4008    0.0000 C   0  0  0
   -9.1663   -3.6359    0.0000 C   0  0  0
  -10.4606   -1.3885    0.0000 C   0  0  1
  -11.7667   -2.1298    0.0000 S   0  0  0
  -10.4724    0.1177    0.0000 C   0  0  0
  -13.0729   -1.3649    0.0000 C   0  0  0
  -14.4496   -1.9650    0.0000 N   0  0  0
  -13.2376    0.1294    0.0000 N   0  0  0
  -15.4615   -0.8472    0.0000 N   0  0  0
  -14.7084    0.4471    0.0000 C   0  0  0
  -12.1433    1.1414    0.0000 C   0  0  0
  1  2  2
  1  3  2
  1  4  1
  1  5  1
  4  6  1
  5  7  1
  6  8  1
  8  9  1
  9 10  2
  9 11  1
 11 12  1
 12 13  2
 12 14  1
 13 15  1
 14 16  2
 15 17  2
 18 15  1
 18 19  1  1  0
 18 20  1
 19 21  1
 21 22  2
 21 23  1
 22 24  1
 23 25  1
 23 26  1
  7  8  1
 16 17  1
 24 25  2
M  END
> <COMPOUND_NAMES>
Compound 165 (S) (Page No: 60, Table No: 1)

> <Reference>
WO 2021/021761 A1

> <IC50_range_nM>
>5000

> <smiles>
C[C@@H](c1cccc(c1)NC(N1CCS(CC1)(=O)=O)=O)Sc1nncn1C

$$$$
C16H21N5O3S2
  MOLSOFT 03092310482D

 26 28  0  0  1  0  0  0  0  0999 V2000
    0.0000   -0.0000    0.0000 S   0  0  0
    1.2819    0.7644    0.0000 O   0  0  0
   -0.7527    1.3054    0.0000 O   0  0  0
   -1.3054   -0.7292    0.0000 C   0  0  0
    0.7409   -1.2819    0.0000 C   0  0  0
   -2.7638   -0.3293    0.0000 C   0  0  0
   -1.7053   -2.1640    0.0000 C   0  0  0
   -3.1636   -1.7641    0.0000 N   0  0  0
   -4.4691   -2.5050    0.0000 C   0  0  0
   -4.4808   -3.9869    0.0000 O   0  0  0
   -5.7745   -1.7406    0.0000 N   0  0  0
   -7.0799   -2.4815    0.0000 C   0  0  0
   -8.3854   -1.7171    0.0000 C   0  0  0
   -7.0917   -3.9633    0.0000 C   0  0  0
   -9.6908   -2.4580    0.0000 C   0  0  0
   -8.3971   -4.7043    0.0000 C   0  0  0
   -9.7026   -3.9398    0.0000 C   0  0  0
  -10.9962   -1.6935    0.0000 C   0  0  1
  -12.3017   -2.4345    0.0000 S   0  0  0
  -11.0080   -0.1882    0.0000 C   0  0  0
  -13.6071   -1.6700    0.0000 C   0  0  0
  -14.9831   -2.2698    0.0000 N   0  0  0
  -13.7718   -0.1764    0.0000 N   0  0  0
  -15.9945   -1.1525    0.0000 N   0  0  0
  -15.2418    0.1411    0.0000 C   0  0  0
  -12.6780    0.8350    0.0000 C   0  0  0
  1  2  2
  1  3  2
  1  4  1
  1  5  1
  4  6  1
  4  7  1
  6  8  1
  8  9  1
  9 10  2
  9 11  1
 11 12  1
 12 13  2
 12 14  1
 13 15  1
 14 16  2
 15 17  2
 18 15  1
 18 19  1  1  0
 18 20  1
 19 21  1
 21 22  2
 21 23  1
 22 24  1
 23 25  1
 23 26  1
  7  8  1
 16 17  1
 24 25  2
M  END
> <COMPOUND_NAMES>
Compound 134 (S) (Page No: 59, Table No: 1)

> <Reference>
WO 2021/021761 A1

> <IC50_range_nM>
>5000

> <smiles>
C[C@@H](c1cccc(c1)NC(N1CC(C1)S(C)(=O)=O)=O)Sc1nncn1C

$$$$
C21H24N6OS
  MOLSOFT 03092310482D

 29 32  0  0  1  0  0  0  0  0999 V2000
    0.0000   -0.0000    0.0000 S   0  0  0
   -1.3139    0.7694    0.0000 C   0  0  0
    1.2902    0.7694    0.0000 C   0  0  2
   -2.6988    0.1657    0.0000 N   0  0  0
   -1.4796    2.2727    0.0000 N   0  0  0
    2.5804    0.0237    0.0000 C   0  0  0
    1.2784    2.2845    0.0000 C   0  0  0
   -3.7168    1.2902    0.0000 N   0  0  0
   -2.9592    2.5923    0.0000 C   0  0  0
   -0.3788    3.2907    0.0000 C   0  0  0
    3.8707    0.7931    0.0000 C   0  0  0
    2.5686   -1.4678    0.0000 C   0  0  0
    5.1609    0.0473    0.0000 C   0  0  0
    3.8588   -2.2135    0.0000 C   0  0  0
    6.4511    0.8167    0.0000 N   0  0  0
    5.1490   -1.4441    0.0000 C   0  0  0
    7.7413    0.0710    0.0000 C   0  0  0
    7.7295   -1.4204    0.0000 O   0  0  0
    9.0315    0.8404    0.0000 N   0  0  0
   10.3928    0.2367    0.0000 C   0  0  0
    9.1736    2.3437    0.0000 C   0  0  0
   11.3871    1.3612    0.0000 C   0  0  3
   10.6295    2.6633    0.0000 C   0  0  0
   12.8667    1.2192    0.0000 C   0  0  0
   13.4704   -0.1420    0.0000 N   0  0  0
   13.7426    2.4502    0.0000 C   0  0  0
   14.9500   -0.2841    0.0000 C   0  0  0
   15.2222    2.3082    0.0000 C   0  0  0
   15.8259    0.9470    0.0000 C   0  0  0
  1  2  1
  3  1  1  1  0
  2  4  2
  2  5  1
  3  6  1
  3  7  1
  4  8  1
  5  9  1
  5 10  1
  6 11  2
  6 12  1
 11 13  1
 12 14  2
 13 15  1
 13 16  2
 15 17  1
 17 18  2
 17 19  1
 19 20  1
 19 21  1
 22 20  1
 21 23  1
 22 24  1
 24 25  2
 24 26  1
 25 27  1
 26 28  2
 27 29  2
  8  9  2
 14 16  1
 22 23  1
 28 29  1
M  END
> <COMPOUND_NAMES>
Compound 157 (S) (Page No: 60, Table No: 1)

> <Reference>
WO 2021/021761 A1

> <IC50_range_nM>
>5000

> <smiles>
C[C@@H](c1cccc(c1)NC(N1CCC(C1)c1ccccn1)=O)Sc1nncn1C

$$$$
C21H25N7OS
  MOLSOFT 03092310482D

 30 33  0  0  1  0  0  0  0  0999 V2000
    0.0000   -0.0000    0.0000 S   0  0  0
   -1.3141    0.7577    0.0000 C   0  0  0
    1.2904    0.7577    0.0000 C   0  0  2
   -2.6992    0.1539    0.0000 N   0  0  0
   -1.4798    2.2612    0.0000 N   0  0  0
    2.5808    0.0118    0.0000 C   0  0  0
    1.2786    2.2730    0.0000 C   0  0  0
   -3.7174    1.2786    0.0000 N   0  0  0
   -2.9597    2.5808    0.0000 C   0  0  0
   -0.3788    3.2793    0.0000 C   0  0  0
    3.8713    0.7695    0.0000 C   0  0  0
    2.5690   -1.4798    0.0000 C   0  0  0
    5.1617    0.0237    0.0000 C   0  0  0
    3.8594   -2.2138    0.0000 C   0  0  0
    6.4521    0.7814    0.0000 N   0  0  0
    5.1498   -1.4680    0.0000 C   0  0  0
    7.7425    0.0355    0.0000 C   0  0  0
    7.7307   -1.4562    0.0000 O   0  0  0
    9.0329    0.7932    0.0000 N   0  0  0
    9.0211    2.3085    0.0000 C   0  0  0
   10.3233    0.0474    0.0000 C   0  0  0
   10.3115    3.0662    0.0000 C   0  0  0
   11.6138    0.8050    0.0000 C   0  0  0
   11.6019    2.3322    0.0000 N   0  0  0
   12.8923    3.0899    0.0000 C   0  0  0
   14.1828    2.3559    0.0000 C   0  0  0
   12.8805    4.6053    0.0000 C   0  0  0
   15.4732    3.1136    0.0000 N   0  0  0
   14.1709    5.3629    0.0000 C   0  0  0
   15.4613    4.6289    0.0000 C   0  0  0
  1  2  1
  3  1  1  1  0
  2  4  2
  2  5  1
  3  6  1
  3  7  1
  4  8  1
  5  9  1
  5 10  1
  6 11  2
  6 12  1
 11 13  1
 12 14  2
 13 15  1
 13 16  2
 15 17  1
 17 18  2
 17 19  1
 19 20  1
 19 21  1
 20 22  1
 21 23  1
 22 24  1
 24 25  1
 25 26  2
 25 27  1
 26 28  1
 27 29  2
 28 30  2
  8  9  2
 14 16  1
 23 24  1
 29 30  1
M  END
> <COMPOUND_NAMES>
Compound 149 (S) (Page No: 60, Table No: 1)

> <Reference>
WO 2021/021761 A1

> <IC50_range_nM>
>5000

> <smiles>
C[C@@H](c1cccc(c1)NC(N1CCN(CC1)c1cccnc1)=O)Sc1nncn1C

$$$$
C18H19N5OS
  MOLSOFT 03092310482D

 25 27  0  0  1  0  0  0  0  0999 V2000
    0.0000   -0.0000    0.0000 S   0  0  0
   -1.3138    0.7694    0.0000 C   0  0  0
    1.2902    0.7694    0.0000 C   0  0  2
   -2.6987    0.1657    0.0000 N   0  0  0
   -1.4795    2.2726    0.0000 N   0  0  0
    2.5803    0.0237    0.0000 C   0  0  0
    1.2783    2.2844    0.0000 C   0  0  0
   -3.7166    1.2902    0.0000 N   0  0  0
   -2.9591    2.5922    0.0000 C   0  0  0
   -0.3788    3.2905    0.0000 C   0  0  0
    3.8705    0.7930    0.0000 C   0  0  0
    2.5685   -1.4677    0.0000 C   0  0  0
    5.1607    0.0473    0.0000 C   0  0  0
    3.8587   -2.2134    0.0000 C   0  0  0
    6.4508    0.8167    0.0000 N   0  0  0
    5.1488   -1.4440    0.0000 C   0  0  0
    7.7410    0.0710    0.0000 C   0  0  0
    7.7291   -1.4204    0.0000 O   0  0  0
    9.0311    0.8404    0.0000 N   0  0  0
   10.3213    0.0947    0.0000 C   0  0  0
   11.6115    0.8641    0.0000 C   0  0  0
   10.3095   -1.3967    0.0000 C   0  0  0
   12.9016    0.1184    0.0000 C   0  0  0
   11.5996   -2.1424    0.0000 C   0  0  0
   12.8898   -1.3730    0.0000 C   0  0  0
  1  2  1
  3  1  1  1  0
  2  4  2
  2  5  1
  3  6  1
  3  7  1
  4  8  1
  5  9  1
  5 10  1
  6 11  2
  6 12  1
 11 13  1
 12 14  2
 13 15  1
 13 16  2
 15 17  1
 17 18  2
 17 19  1
 19 20  1
 20 21  2
 20 22  1
 21 23  1
 22 24  2
 23 25  2
  8  9  2
 14 16  1
 24 25  1
M  END
> <COMPOUND_NAMES>
Compound 6 (S) (Page No: 56, Table No: 1)

> <Reference>
WO 2021/021761 A1

> <IC50_range_nM>
>5000

> <smiles>
C[C@@H](c1cccc(c1)NC(Nc1ccccc1)=O)Sc1nncn1C

$$$$
C22H26N6O2S
  MOLSOFT 03092310482D

 31 33  0  0  1  0  0  0  0  0999 V2000
    0.0000   -0.0000    0.0000 S   0  0  0
   -1.3167    0.7592    0.0000 C   0  0  0
    1.2930    0.7592    0.0000 C   0  0  2
   -2.7045    0.1542    0.0000 N   0  0  0
   -1.4828    2.2657    0.0000 N   0  0  0
    2.5859    0.0237    0.0000 C   0  0  0
    1.2811    2.2775    0.0000 C   0  0  0
   -3.7247    1.2811    0.0000 N   0  0  0
   -2.9655    2.5859    0.0000 C   0  0  0
   -0.3796    3.2858    0.0000 C   0  0  0
    3.8789    0.7829    0.0000 C   0  0  0
    2.5741   -1.4709    0.0000 C   0  0  0
    5.1719    0.0474    0.0000 C   0  0  0
    3.8670   -2.2182    0.0000 C   0  0  0
    6.4648    0.8066    0.0000 N   0  0  0
    5.1600   -1.4472    0.0000 C   0  0  0
    7.7578    0.0712    0.0000 C   0  0  0
    7.7459   -1.4234    0.0000 O   0  0  0
    9.0507    0.8303    0.0000 N   0  0  0
   10.3437    0.0949    0.0000 C   0  0  0
   11.6367    0.8541    0.0000 C   0  0  0
   10.3319   -1.3997    0.0000 C   0  0  0
   12.9296    0.1186    0.0000 C   0  0  0
   11.6248   -2.1470    0.0000 C   0  0  0
   12.9178   -1.3760    0.0000 C   0  0  0
   14.2107   -2.1233    0.0000 C   0  0  0
   14.1989   -3.6179    0.0000 C   0  0  0
   12.8822   -4.3534    0.0000 O   0  0  0
   15.4918   -4.3534    0.0000 N   0  0  0
   15.4800   -5.8480    0.0000 C   0  0  0
   16.7848   -3.5942    0.0000 C   0  0  0
  1  2  1
  3  1  1  1  0
  2  4  2
  2  5  1
  3  6  1
  3  7  1
  4  8  1
  5  9  1
  5 10  1
  6 11  2
  6 12  1
 11 13  1
 12 14  2
 13 15  1
 13 16  2
 15 17  1
 17 18  2
 17 19  1
 19 20  1
 20 21  2
 20 22  1
 21 23  1
 22 24  2
 23 25  2
 25 26  1
 26 27  1
 27 28  2
 27 29  1
 29 30  1
 29 31  1
  8  9  2
 14 16  1
 24 25  1
M  END
> <COMPOUND_NAMES>
Compound 150 (S) (Page No: 60, Table No: 1)

> <Reference>
WO 2021/021761 A1

> <IC50_range_nM>
>5000

> <smiles>
C[C@@H](c1cccc(c1)NC(Nc1ccc(CC(N(C)C)=O)cc1)=O)Sc1nncn1C

$$$$
C[C@H](SC1=NN=CN1C)C1=CC(NC(=O)NC2CCCCC2)=CC=C1
  MOLSOFT 03092310482D

 25 27  0  0  1  0  0  0  0  0999 V2000
    0.0000   -0.0000    0.0000 S   0  0  0
   -1.3138    0.7694    0.0000 C   0  0  0
    1.2902    0.7694    0.0000 C   0  0  2
   -2.6987    0.1657    0.0000 N   0  0  0
   -1.4795    2.2726    0.0000 N   0  0  0
    2.5803    0.0237    0.0000 C   0  0  0
    1.2783    2.2844    0.0000 C   0  0  0
   -3.7166    1.2902    0.0000 N   0  0  0
   -2.9591    2.5922    0.0000 C   0  0  0
   -0.3788    3.2905    0.0000 C   0  0  0
    3.8705    0.7930    0.0000 C   0  0  0
    2.5685   -1.4677    0.0000 C   0  0  0
    5.1607    0.0473    0.0000 C   0  0  0
    3.8587   -2.2134    0.0000 C   0  0  0
    6.4508    0.8167    0.0000 N   0  0  0
    5.1488   -1.4440    0.0000 C   0  0  0
    7.7410    0.0710    0.0000 C   0  0  0
    7.7291   -1.4204    0.0000 O   0  0  0
    9.0311    0.8404    0.0000 N   0  0  0
   10.3213    0.0947    0.0000 C   0  0  0
   11.6115    0.8641    0.0000 C   0  0  0
   10.3095   -1.3967    0.0000 C   0  0  0
   12.9016    0.1184    0.0000 C   0  0  0
   11.5996   -2.1424    0.0000 C   0  0  0
   12.8898   -1.3730    0.0000 C   0  0  0
  1  2  1
  3  1  1  1  0
  2  4  2
  2  5  1
  3  6  1
  3  7  1
  4  8  1
  5  9  1
  5 10  1
  6 11  2
  6 12  1
 11 13  1
 12 14  2
 13 15  1
 13 16  2
 15 17  1
 17 18  2
 17 19  1
 19 20  1
 20 21  1
 20 22  1
 21 23  1
 22 24  1
 23 25  1
  8  9  2
 14 16  1
 24 25  1
M  END
> <COMPOUND_NAMES>
Compound 161 (S) (Page No: 60, Table No: 1)

> <Reference>
WO 2021/021761 A1

> <IC50_range_nM>
>5000

> <smiles>
C[C@@H](c1cccc(c1)NC(NC1CCCCC1)=O)Sc1nncn1C

$$$$
C18H26N6OS
  MOLSOFT 03092310482D

 26 28  0  0  1  0  0  0  0  0999 V2000
    0.0000   -0.0000    0.0000 S   0  0  0
   -1.3165    0.7591    0.0000 C   0  0  0
    1.2928    0.7591    0.0000 C   0  0  2
   -2.7042    0.1542    0.0000 N   0  0  0
   -1.4826    2.2654    0.0000 N   0  0  0
    2.5856    0.0119    0.0000 C   0  0  0
    1.2810    2.2773    0.0000 C   0  0  0
   -3.7243    1.2810    0.0000 N   0  0  0
   -2.9652    2.5856    0.0000 C   0  0  0
   -0.3795    3.2854    0.0000 C   0  0  0
    3.8785    0.7709    0.0000 C   0  0  0
    2.5738   -1.4826    0.0000 C   0  0  0
    5.1713    0.0237    0.0000 C   0  0  0
    3.8666   -2.2180    0.0000 C   0  0  0
    6.4641    0.7828    0.0000 N   0  0  0
    5.1594   -1.4707    0.0000 C   0  0  0
    7.7569    0.0356    0.0000 C   0  0  0
    7.7451   -1.4589    0.0000 O   0  0  0
    9.0497    0.7947    0.0000 N   0  0  0
   10.3426    0.0474    0.0000 C   0  0  3
   10.3307   -1.4470    0.0000 C   0  0  0
   11.6354    0.8065    0.0000 C   0  0  0
   11.6235   -2.1824    0.0000 N   0  0  0
   12.9282    0.0593    0.0000 C   0  0  0
   12.9163   -1.4233    0.0000 C   0  0  0
   11.6117   -3.6768    0.0000 C   0  0  0
  1  2  1
  3  1  1  1  0
  2  4  2
  2  5  1
  3  6  1
  3  7  1
  4  8  1
  5  9  1
  5 10  1
  6 11  2
  6 12  1
 11 13  1
 12 14  2
 13 15  1
 13 16  2
 15 17  1
 17 18  2
 17 19  1
 20 19  1
 20 21  1
 20 22  1
 21 23  1
 22 24  1
 23 25  1
 23 26  1
  8  9  2
 14 16  1
 24 25  1
M  END
> <COMPOUND_NAMES>
Compound 159 (S) (Page No: 60, Table No: 1)

> <Reference>
WO 2021/021761 A1

> <IC50_range_nM>
>5000

> <smiles>
C[C@@H](c1cccc(c1)NC(NC1CCCN(C)C1)=O)Sc1nncn1C

$$$$
C19H24N6O2S
  MOLSOFT 03092310482D

 28 31  0  0  1  0  0  0  0  0999 V2000
    0.0000   -0.0000    0.0000 S   0  0  0
   -1.3140    0.7695    0.0000 C   0  0  0
    1.2904    0.7695    0.0000 C   0  0  2
   -2.6991    0.1657    0.0000 N   0  0  0
   -1.4798    2.2729    0.0000 N   0  0  0
    2.5807    0.0237    0.0000 C   0  0  0
    1.2785    2.2848    0.0000 C   0  0  0
   -3.7172    1.2904    0.0000 N   0  0  0
   -2.9596    2.5926    0.0000 C   0  0  0
   -0.3788    3.2910    0.0000 C   0  0  0
    3.8711    0.7932    0.0000 C   0  0  0
    2.5689   -1.4679    0.0000 C   0  0  0
    5.1615    0.0474    0.0000 C   0  0  0
    3.8593   -2.2138    0.0000 C   0  0  0
    6.4519    0.8168    0.0000 N   0  0  0
    5.1496   -1.4443    0.0000 C   0  0  0
    7.7422    0.0710    0.0000 C   0  0  0
    7.7304   -1.4206    0.0000 O   0  0  0
    9.0326    0.8405    0.0000 N   0  0  0
   10.3940    0.2368    0.0000 C   0  0  0
    9.1747    2.3440    0.0000 C   0  0  0
   11.3884    1.3614    0.0000 C   0  0  3
   10.6308    2.6636    0.0000 C   0  0  0
   12.3828    2.4860    0.0000 C   0  0  0
   12.1342    0.0710    0.0000 C   0  0  0
   13.7442    1.8823    0.0000 N   0  0  0
   13.5903    0.3907    0.0000 C   0  0  0
   14.6913   -0.6038    0.0000 O   0  0  0
  1  2  1
  3  1  1  1  0
  2  4  2
  2  5  1
  3  6  1
  3  7  1
  4  8  1
  5  9  1
  5 10  1
  6 11  2
  6 12  1
 11 13  1
 12 14  2
 13 15  1
 13 16  2
 15 17  1
 17 18  2
 17 19  1
 19 20  1
 19 21  1
 22 20  1
 21 23  1
 22 24  1
 22 25  1
 24 26  1
 25 27  1
 27 28  2
  8  9  2
 14 16  1
 22 23  1
 26 27  1
M  END
> <COMPOUND_NAMES>
Compound 139 (S) (Page No: 59, Table No: 1)

> <Reference>
WO 2021/021761 A1

> <IC50_range_nM>
>5000

> <smiles>
C[C@@H](c1cccc(c1)NC(N1CCC2(CC(NC2)=O)C1)=O)Sc1nncn1C

$$$$
C22H30N6O2S
  MOLSOFT 03092310482D

 31 34  0  0  1  0  0  0  0  0999 V2000
    0.0000   -0.0000    0.0000 S   0  0  0
   -1.3131    0.7689    0.0000 C   0  0  0
    1.2894    0.7689    0.0000 C   0  0  2
   -2.6972    0.1656    0.0000 N   0  0  0
   -1.4787    2.2713    0.0000 N   0  0  0
    2.5789    0.0237    0.0000 C   0  0  0
    1.2776    2.2832    0.0000 C   0  0  0
   -3.7146    1.2894    0.0000 N   0  0  0
   -2.9575    2.5907    0.0000 C   0  0  0
   -0.3786    3.2887    0.0000 C   0  0  0
    3.8683    0.7926    0.0000 C   0  0  0
    2.5671   -1.4669    0.0000 C   0  0  0
    5.1578    0.0473    0.0000 C   0  0  0
    3.8565   -2.2122    0.0000 C   0  0  0
    6.4472    0.8163    0.0000 N   0  0  0
    5.1460   -1.4432    0.0000 C   0  0  0
    7.7367    0.0710    0.0000 C   0  0  0
    7.7249   -1.4196    0.0000 O   0  0  0
    9.0261    0.8399    0.0000 N   0  0  0
    9.0143    2.3541    0.0000 C   0  0  0
   10.3156    0.0946    0.0000 C   0  0  0
   10.3038    3.1112    0.0000 C   0  0  0
   11.6050    0.8636    0.0000 C   0  0  0
   11.5932    2.3778    0.0000 C   0  0  0
   12.9536    1.7745    0.0000 C   0  0  0
   11.7352    3.8802    0.0000 C   0  0  0
   13.9473    2.8983    0.0000 N   0  0  0
   13.1902    4.1996    0.0000 C   0  0  0
   15.4261    2.7563    0.0000 C   0  0  0
   16.3015    3.9866    0.0000 O   0  0  0
   16.0294    1.3959    0.0000 C   0  0  0
  1  2  1
  3  1  1  1  0
  2  4  2
  2  5  1
  3  6  1
  3  7  1
  4  8  1
  5  9  1
  5 10  1
  6 11  2
  6 12  1
 11 13  1
 12 14  2
 13 15  1
 13 16  2
 15 17  1
 17 18  2
 17 19  1
 19 20  1
 19 21  1
 20 22  1
 21 23  1
 22 24  1
 24 25  1
 24 26  1
 25 27  1
 26 28  1
 27 29  1
 29 30  2
 29 31  1
  8  9  2
 14 16  1
 23 24  1
 27 28  1
M  END
> <COMPOUND_NAMES>
Compound 160 (S) (Page No: 60, Table No: 1)

> <Reference>
WO 2021/021761 A1

> <IC50_range_nM>
>5000

> <smiles>
CC(N1CCC2(CCN(CC2)C(Nc2cccc(c2)[C@H](C)Sc2nncn2C)=O)C1)=O

$$$$
C20H28N6OS
  MOLSOFT 03092310482D

 28 31  0  0  1  0  0  0  0  0999 V2000
    0.0000   -0.0000    0.0000 S   0  0  0
   -1.3142    0.7696    0.0000 C   0  0  0
    1.2905    0.7696    0.0000 C   0  0  2
   -2.6994    0.1658    0.0000 N   0  0  0
   -1.4799    2.2732    0.0000 N   0  0  0
    2.5810    0.0237    0.0000 C   0  0  0
    1.2787    2.2850    0.0000 C   0  0  0
   -3.7176    1.2905    0.0000 N   0  0  0
   -2.9599    2.5929    0.0000 C   0  0  0
   -0.3789    3.2914    0.0000 C   0  0  0
    3.8715    0.7932    0.0000 C   0  0  0
    2.5692   -1.4681    0.0000 C   0  0  0
    5.1620    0.0474    0.0000 C   0  0  0
    3.8597   -2.2140    0.0000 C   0  0  0
    6.4525    0.8169    0.0000 N   0  0  0
    5.1502   -1.4444    0.0000 C   0  0  0
    7.7430    0.0710    0.0000 C   0  0  0
    7.7312   -1.4207    0.0000 O   0  0  0
    9.0335    0.8406    0.0000 N   0  0  0
   10.4780    0.4617    0.0000 C   0  0  0
    9.4124    2.3087    0.0000 C   0  0  0
   11.9697    0.4736    0.0000 C   0  0  0
    9.7202   -0.8288    0.0000 C   0  0  0
   10.8568    1.9298    0.0000 C   0  0  0
   12.7038   -0.8169    0.0000 C   0  0  0
   10.4543   -2.1193    0.0000 C   0  0  0
   11.9461   -2.1074    0.0000 N   0  0  0
   12.6801   -3.3979    0.0000 C   0  0  0
  1  2  1
  3  1  1  1  0
  2  4  2
  2  5  1
  3  6  1
  3  7  1
  4  8  1
  5  9  1
  5 10  1
  6 11  2
  6 12  1
 11 13  1
 12 14  2
 13 15  1
 13 16  2
 15 17  1
 17 18  2
 17 19  1
 19 20  1
 19 21  1
 20 22  1
 20 23  1
 20 24  1
 22 25  1
 23 26  1
 25 27  1
 27 28  1
  8  9  2
 14 16  1
 21 24  1
 26 27  1
M  END
> <COMPOUND_NAMES>
Compound 126 (S) (Page No: 59, Table No: 1)

> <Reference>
WO 2021/021761 A1

> <IC50_range_nM>
>5000

> <smiles>
C[C@@H](c1cccc(c1)NC(N1CCC12CCN(C)CC2)=O)Sc1nncn1C

$$$$
C22H24N6O3S
  MOLSOFT 03092310482D

 32 35  0  0  1  0  0  0  0  0999 V2000
    0.0000   -0.0000    0.0000 S   0  0  0
   -1.3172    0.7594    0.0000 C   0  0  0
    1.2934    0.7594    0.0000 C   0  0  2
   -2.7055    0.1543    0.0000 N   0  0  0
   -1.4833    2.2665    0.0000 N   0  0  0
    2.5869    0.0237    0.0000 C   0  0  0
    1.2816    2.2783    0.0000 C   0  0  0
   -3.7260    1.2816    0.0000 N   0  0  0
   -2.9666    2.5869    0.0000 C   0  0  0
   -0.3797    3.2870    0.0000 C   0  0  0
    3.8803    0.7832    0.0000 C   0  0  0
    2.5750   -1.4714    0.0000 C   0  0  0
    5.1737    0.0475    0.0000 C   0  0  0
    3.8684   -2.2190    0.0000 C   0  0  0
    6.4672    0.8069    0.0000 N   0  0  0
    5.1619   -1.4477    0.0000 C   0  0  0
    7.7606    0.0712    0.0000 C   0  0  0
    7.7487   -1.4240    0.0000 O   0  0  0
    9.0540    0.8306    0.0000 N   0  0  0
   10.3475    0.0949    0.0000 C   0  0  0
   11.6409    0.8544    0.0000 C   0  0  0
   10.3356   -1.4002    0.0000 C   0  0  0
   12.9343    0.1187    0.0000 C   0  0  0
   11.6290   -2.1478    0.0000 C   0  0  0
   12.9225   -1.3765    0.0000 C   0  0  0
   14.2159   -2.1241    0.0000 N   0  0  0
   14.2040   -3.6192    0.0000 C   0  0  0
   15.5094   -1.3646    0.0000 C   0  0  0
   12.8869   -4.3550    0.0000 O   0  0  0
   15.4975   -4.3550    0.0000 C   0  0  0
   16.8028   -2.1122    0.0000 C   0  0  0
   16.7909   -3.5955    0.0000 O   0  0  0
  1  2  1
  3  1  1  1  0
  2  4  2
  2  5  1
  3  6  1
  3  7  1
  4  8  1
  5  9  1
  5 10  1
  6 11  2
  6 12  1
 11 13  1
 12 14  2
 13 15  1
 13 16  2
 15 17  1
 17 18  2
 17 19  1
 19 20  1
 20 21  2
 20 22  1
 21 23  1
 22 24  2
 23 25  2
 25 26  1
 26 27  1
 26 28  1
 27 29  2
 27 30  1
 28 31  1
 30 32  1
  8  9  2
 14 16  1
 24 25  1
 31 32  1
M  END
> <COMPOUND_NAMES>
Compound 147 (S) (Page No: 60, Table No: 1)

> <Reference>
WO 2021/021761 A1

> <IC50_range_nM>
>5000

> <smiles>
C[C@@H](c1cccc(c1)NC(Nc1ccc(cc1)N1CCOCC1=O)=O)Sc1nncn1C

$$$$
C23H28N6O3S
  MOLSOFT 03092310482D

 33 36  0  0  1  0  0  0  0  0999 V2000
    0.0000   -0.0000    0.0000 S   0  0  0
   -1.3171    0.7594    0.0000 C   0  0  0
   -0.0119   -1.4951    0.0000 C   0  0  2
   -2.7055    0.1543    0.0000 N   0  0  0
   -1.4833    2.2664    0.0000 N   0  0  0
    1.2815   -2.2308    0.0000 C   0  0  0
   -1.3290   -2.2308    0.0000 C   0  0  0
   -3.7260    1.2815    0.0000 N   0  0  0
   -2.9665    2.5868    0.0000 C   0  0  0
   -0.3797    3.2869    0.0000 C   0  0  0
    2.5750   -1.4714    0.0000 C   0  0  0
    1.2697   -3.7260    0.0000 C   0  0  0
    3.8684   -2.2071    0.0000 C   0  0  0
    2.5631   -4.4735    0.0000 C   0  0  0
    5.1618   -1.4477    0.0000 N   0  0  0
    3.8565   -3.7022    0.0000 C   0  0  0
    6.4552   -2.1834    0.0000 C   0  0  0
    6.4433   -3.6785    0.0000 O   0  0  0
    7.7486   -1.4239    0.0000 N   0  0  0
    9.0420   -2.1596    0.0000 C   0  0  0
   10.3354   -1.4002    0.0000 C   0  0  0
    9.0301   -3.6548    0.0000 C   0  0  0
   10.3235    0.1187    0.0000 O   0  0  0
   11.6288   -2.1359    0.0000 C   0  0  0
   10.3235   -4.4023    0.0000 C   0  0  0
   11.6169    0.8781    0.0000 C   0  0  0
   11.6169   -3.6310    0.0000 C   0  0  0
   12.9104   -4.3786    0.0000 N   0  0  0
   14.2038   -3.6192    0.0000 C   0  0  0
   12.8985   -5.8737    0.0000 C   0  0  0
   15.4972   -4.3667    0.0000 C   0  0  0
   14.1919   -6.6094    0.0000 C   0  0  0
   15.4853   -5.8619    0.0000 O   0  0  0
  1  2  1
  3  1  1  6  0
  2  4  2
  2  5  1
  3  6  1
  3  7  1
  4  8  1
  5  9  1
  5 10  1
  6 11  2
  6 12  1
 11 13  1
 12 14  2
 13 15  1
 13 16  2
 15 17  1
 17 18  2
 17 19  1
 19 20  1
 20 21  2
 20 22  1
 21 23  1
 21 24  1
 22 25  2
 23 26  1
 24 27  2
 27 28  1
 28 29  1
 28 30  1
 29 31  1
 30 32  1
 31 33  1
  8  9  2
 14 16  1
 25 27  1
 32 33  1
M  END
> <COMPOUND_NAMES>
Compound 148 (S) (Page No: 60, Table No: 1)

> <Reference>
WO 2021/021761 A1

> <IC50_range_nM>
>5000

> <smiles>
C[C@@H](c1cccc(c1)NC(Nc1ccc(cc1OC)N1CCOCC1)=O)Sc1nncn1C

$$$$
C18H23N5O2S
  MOLSOFT 03092310482D

 26 29  0  0  1  0  0  0  0  0999 V2000
    0.0000   -0.0000    0.0000 S   0  0  0
   -1.3106    0.7557    0.0000 C   0  0  0
    1.2870    0.7557    0.0000 C   0  0  2
   -2.6921    0.1535    0.0000 N   0  0  0
   -1.4759    2.2552    0.0000 N   0  0  0
    2.5740    0.0236    0.0000 C   0  0  0
    1.2752    2.2670    0.0000 C   0  0  0
   -3.7075    1.2752    0.0000 N   0  0  0
   -2.9518    2.5740    0.0000 C   0  0  0
   -0.3778    3.2706    0.0000 C   0  0  0
    2.5622   -1.4641    0.0000 C   0  0  0
    3.8610    0.7793    0.0000 C   0  0  0
    3.8492   -2.2080    0.0000 C   0  0  0
    5.1480    0.0472    0.0000 C   0  0  0
    3.8374   -3.6957    0.0000 N   0  0  0
    5.1362   -1.4523    0.0000 C   0  0  0
    2.5268   -4.4277    0.0000 C   0  0  0
    1.2162   -3.6721    0.0000 O   0  0  0
    2.5150   -5.9155    0.0000 N   0  0  0
    1.4405   -6.9663    0.0000 C   0  0  3
    3.5658   -6.9663    0.0000 C   0  0  0
    0.5431   -5.7383    0.0000 C   0  0  0
    0.5431   -8.1707    0.0000 C   0  0  0
    2.4913   -8.0172    0.0000 C   0  0  0
   -0.8974   -6.1870    0.0000 O   0  0  0
   -0.8974   -7.6984    0.0000 C   0  0  0
  1  2  1
  3  1  1  1  0
  2  4  2
  2  5  1
  3  6  1
  3  7  1
  4  8  1
  5  9  1
  5 10  1
  6 11  2
  6 12  1
 11 13  1
 12 14  2
 13 15  1
 13 16  2
 15 17  1
 17 18  2
 17 19  1
 20 19  1
 19 21  1
 20 22  1
 20 23  1
 20 24  1
 22 25  1
 23 26  1
  8  9  2
 14 16  1
 21 24  1
 25 26  1
M  END
> <COMPOUND_NAMES>
Compound 130 (S) (Page No: 59, Table No: 1)

> <Reference>
WO 2021/021761 A1

> <IC50_range_nM>
>5000

> <smiles>
C[C@@H](c1cccc(c1)NC(N1CCC12CCOC2)=O)Sc1nncn1C

$$$$
C18H22N6O3S
  MOLSOFT 03092310482D

 28 31  0  0  1  0  0  0  0  0999 V2000
    0.0000   -0.0000    0.0000 S   0  0  0
   -1.3137    0.7575    0.0000 C   0  0  0
    1.2900    0.7575    0.0000 C   0  0  2
   -2.6984    0.1539    0.0000 N   0  0  0
   -1.4794    2.2605    0.0000 N   0  0  0
    2.5801    0.0118    0.0000 C   0  0  0
    1.2782    2.2724    0.0000 C   0  0  0
   -3.7162    1.2782    0.0000 N   0  0  0
   -2.9588    2.5801    0.0000 C   0  0  0
   -0.3787    3.2783    0.0000 C   0  0  0
    3.8701    0.7693    0.0000 C   0  0  0
    2.5682   -1.4794    0.0000 C   0  0  0
    5.1601    0.0237    0.0000 C   0  0  0
    3.8583   -2.2132    0.0000 C   0  0  0
    6.4502    0.7811    0.0000 N   0  0  0
    5.1483   -1.4676    0.0000 C   0  0  0
    7.7402    0.0355    0.0000 C   0  0  0
    7.7284   -1.4557    0.0000 O   0  0  0
    9.0302    0.7930    0.0000 N   0  0  0
    9.4090    2.2605    0.0000 C   0  0  0
   10.4741    0.4142    0.0000 C   0  0  0
   10.8528    1.8818    0.0000 C   0  0  0
   12.1429    1.1362    0.0000 N   0  0  0
   10.8410    3.3967    0.0000 C   0  0  0
   13.4329    1.8936    0.0000 C   0  0  0
   12.1310    4.1541    0.0000 C   0  0  0
   14.7229    1.1480    0.0000 O   0  0  0
   13.4211    3.4085    0.0000 O   0  0  0
  1  2  1
  3  1  1  1  0
  2  4  2
  2  5  1
  3  6  1
  3  7  1
  4  8  1
  5  9  1
  5 10  1
  6 11  2
  6 12  1
 11 13  1
 12 14  2
 13 15  1
 13 16  2
 15 17  1
 17 18  2
 17 19  1
 19 20  1
 19 21  1
 20 22  1
 22 23  1
 22 24  1
 23 25  1
 24 26  1
 25 27  2
 25 28  1
  8  9  2
 14 16  1
 21 22  1
 26 28  1
M  END
> <COMPOUND_NAMES>
Compound 141 (S) (Page No: 59, Table No: 1)

> <Reference>
WO 2021/021761 A1

> <IC50_range_nM>
>5000

> <smiles>
C[C@@H](c1cccc(c1)NC(N1CC2(CCOC(N2)=O)C1)=O)Sc1nncn1C

$$$$
C19H22N6O3S2
  MOLSOFT 03092310482D

 30 32  0  0  1  0  0  0  0  0999 V2000
    0.0000   -0.0000    0.0000 S   0  0  0
   -0.7580   -1.2910    0.0000 O   0  0  0
    0.7462    1.3147    0.0000 O   0  0  0
   -1.3147    0.7580    0.0000 N   0  0  0
    1.2910   -0.7462    0.0000 C   0  0  0
   -2.6293    0.0237    0.0000 C   0  0  0
    2.5819    0.0237    0.0000 C   0  0  0
    1.2791   -2.2385    0.0000 C   0  0  0
    3.8729   -0.7225    0.0000 C   0  0  0
    2.5701   -2.9728    0.0000 C   0  0  0
    3.8611   -2.2148    0.0000 C   0  0  0
    5.1521   -2.9491    0.0000 N   0  0  0
    5.1402   -4.4414    0.0000 C   0  0  0
    3.8255   -5.1757    0.0000 O   0  0  0
    6.4312   -5.1757    0.0000 N   0  0  0
    6.4193   -6.6681    0.0000 C   0  0  0
    5.1047   -7.4024    0.0000 C   0  0  0
    7.7103   -7.4024    0.0000 C   0  0  0
    5.0928   -8.8947    0.0000 C   0  0  0
    7.6985   -8.8947    0.0000 C   0  0  0
    6.3838   -9.6409    0.0000 C   0  0  0
    3.7782   -9.6409    0.0000 C   0  0  1
    2.4635   -8.8828    0.0000 S   0  0  0
    3.7663  -11.1332    0.0000 C   0  0  0
    1.1488   -9.6290    0.0000 C   0  0  0
    0.9830  -11.1095    0.0000 N   0  0  0
   -0.2369   -9.0013    0.0000 N   0  0  0
   -0.4974  -11.4056    0.0000 N   0  0  0
   -1.2554  -10.1028    0.0000 C   0  0  0
   -0.5567   -7.5208    0.0000 C   0  0  0
  1  2  2
  1  3  2
  1  4  1
  1  5  1
  4  6  1
  5  7  2
  5  8  1
  7  9  1
  8 10  2
  9 11  2
 11 12  1
 12 13  1
 13 14  2
 13 15  1
 15 16  1
 16 17  2
 16 18  1
 17 19  1
 18 20  2
 19 21  2
 22 19  1
 22 23  1  6  0
 22 24  1
 23 25  1
 25 26  2
 25 27  1
 26 28  1
 27 29  1
 27 30  1
 10 11  1
 20 21  1
 28 29  2
M  END
> <COMPOUND_NAMES>
Compound 163 (S) (Page No: 60, Table No: 1)

> <Reference>
WO 2021/021761 A1

> <IC50_range_nM>
>5000

> <smiles>
C[C@@H](c1cccc(c1)NC(Nc1ccc(cc1)S(NC)(=O)=O)=O)Sc1nncn1C

$$$$
C20H24N6O3S2
  MOLSOFT 03092310482D

 31 33  0  0  1  0  0  0  0  0999 V2000
    0.0000   -0.0000    0.0000 S   0  0  0
   -0.7535   -1.2833    0.0000 O   0  0  0
    0.7300    1.3069    0.0000 O   0  0  0
    1.2833   -0.7300    0.0000 N   0  0  0
   -1.3069    0.7535    0.0000 C   0  0  0
    2.5666    0.0235    0.0000 C   0  0  0
    1.2715   -2.2134    0.0000 C   0  0  0
   -1.3186    2.2605    0.0000 C   0  0  0
   -2.6137    0.0118    0.0000 C   0  0  0
   -2.6255    3.0140    0.0000 C   0  0  0
   -3.9206    0.7653    0.0000 C   0  0  0
   -3.9323    2.2841    0.0000 C   0  0  0
   -5.2392    3.0376    0.0000 N   0  0  0
   -6.5461    2.3076    0.0000 C   0  0  0
   -6.5578    0.8241    0.0000 O   0  0  0
   -7.8529    3.0611    0.0000 N   0  0  0
   -9.1598    2.3311    0.0000 C   0  0  0
  -10.4666    3.0847    0.0000 C   0  0  0
   -9.1715    0.8477    0.0000 C   0  0  0
  -11.7735    2.3547    0.0000 C   0  0  0
  -10.4784    0.1060    0.0000 C   0  0  0
  -11.7853    0.8712    0.0000 C   0  0  0
  -13.0803    3.1082    0.0000 C   0  0  1
  -14.3872    2.3782    0.0000 S   0  0  0
  -13.0921    4.6152    0.0000 C   0  0  0
  -15.6940    3.1317    0.0000 C   0  0  0
  -17.0715    2.5313    0.0000 N   0  0  0
  -15.8589    4.6270    0.0000 N   0  0  0
  -18.0841    3.6498    0.0000 N   0  0  0
  -17.3306    4.9449    0.0000 C   0  0  0
  -14.7639    5.6395    0.0000 C   0  0  0
  1  2  2
  1  3  2
  1  4  1
  1  5  1
  4  6  1
  4  7  1
  5  8  2
  5  9  1
  8 10  1
  9 11  2
 10 12  2
 12 13  1
 13 14  1
 14 15  2
 14 16  1
 16 17  1
 17 18  2
 17 19  1
 18 20  1
 19 21  2
 20 22  2
 23 20  1
 23 24  1  1  0
 23 25  1
 24 26  1
 26 27  2
 26 28  1
 27 29  1
 28 30  1
 28 31  1
 11 12  1
 21 22  1
 29 30  2
M  END
> <COMPOUND_NAMES>
Compound 158 (S) (Page No: 60, Table No: 1)

> <Reference>
WO 2021/021761 A1

> <IC50_range_nM>
>5000

> <smiles>
C[C@@H](c1cccc(c1)NC(Nc1ccc(cc1)S(N(C)C)(=O)=O)=O)Sc1nncn1C

$$$$
C20H24N6O3S2
  MOLSOFT 03092310482D

 31 33  0  0  1  0  0  0  0  0999 V2000
    0.0000   -0.0000    0.0000 S   0  0  0
   -1.5144    0.0118    0.0000 O   0  0  0
    1.4908    0.0118    0.0000 O   0  0  0
   -0.0118    1.5144    0.0000 N   0  0  0
   -0.0118   -1.4908    0.0000 C   0  0  0
   -1.3251    2.2716    0.0000 C   0  0  0
   -1.3251   -2.2361    0.0000 C   0  0  0
    1.2778   -2.2361    0.0000 C   0  0  0
   -1.3369   -3.7269    0.0000 C   0  0  0
   -2.6384   -1.4671    0.0000 C   0  0  0
    1.2660   -3.7269    0.0000 C   0  0  0
   -0.0473   -4.4604    0.0000 C   0  0  0
    2.5556   -4.4604    0.0000 N   0  0  0
    2.5437   -5.9512    0.0000 C   0  0  0
    1.2305   -6.6847    0.0000 O   0  0  0
    3.8334   -6.6847    0.0000 N   0  0  0
    3.8215   -8.1755    0.0000 C   0  0  0
    2.5082   -8.9090    0.0000 C   0  0  0
    5.1111   -8.9090    0.0000 C   0  0  0
    2.4964  -10.3998    0.0000 C   0  0  0
    5.0993  -10.3998    0.0000 C   0  0  0
    3.7860  -11.1451    0.0000 C   0  0  0
    1.1831  -11.1451    0.0000 C   0  0  1
   -0.1301  -10.3879    0.0000 S   0  0  0
    1.1713  -12.6359    0.0000 C   0  0  0
   -1.4434  -11.1333    0.0000 C   0  0  0
   -1.6091  -12.6122    0.0000 N   0  0  0
   -2.8277  -10.5063    0.0000 N   0  0  0
   -3.0880  -12.9080    0.0000 N   0  0  0
   -3.8452  -11.6066    0.0000 C   0  0  0
   -3.1471   -9.0273    0.0000 C   0  0  0
  1  2  2
  1  3  2
  1  4  1
  1  5  1
  4  6  1
  5  7  2
  5  8  1
  7  9  1
  7 10  1
  8 11  2
  9 12  2
 11 13  1
 13 14  1
 14 15  2
 14 16  1
 16 17  1
 17 18  2
 17 19  1
 18 20  1
 19 21  2
 20 22  2
 23 20  1
 23 24  1  6  0
 23 25  1
 24 26  1
 26 27  2
 26 28  1
 27 29  1
 28 30  1
 28 31  1
 11 12  1
 21 22  1
 29 30  2
M  END
> <COMPOUND_NAMES>
Compound 144 (S) (Page No: 59, Table No: 1)

> <Reference>
WO 2021/021761 A1

> <IC50_range_nM>
>5000

> <smiles>
Cc1ccc(cc1S(NC)(=O)=O)NC(Nc1cccc(c1)[C@H](C)Sc1nncn1C)=O

$$$$
C18H21N7O3S
  MOLSOFT 03092310482D

 29 32  0  0  1  0  0  0  0  0999 V2000
    0.0000   -0.0000    0.0000 S   0  0  0
   -1.3139    0.7694    0.0000 C   0  0  0
    1.2903    0.7694    0.0000 C   0  0  2
   -2.6989    0.1657    0.0000 N   0  0  0
   -1.4797    2.2728    0.0000 N   0  0  0
    2.5805    0.0237    0.0000 C   0  0  0
    1.2784    2.2846    0.0000 C   0  0  0
   -3.7169    1.2903    0.0000 N   0  0  0
   -2.9593    2.5924    0.0000 C   0  0  0
   -0.3788    3.2908    0.0000 C   0  0  0
    3.8708    0.7931    0.0000 C   0  0  0
    2.5687   -1.4678    0.0000 C   0  0  0
    5.1611    0.0473    0.0000 C   0  0  0
    3.8590   -2.2136    0.0000 C   0  0  0
    6.4514    0.8168    0.0000 N   0  0  0
    5.1493   -1.4442    0.0000 C   0  0  0
    7.7416    0.0710    0.0000 C   0  0  0
    7.7298   -1.4205    0.0000 O   0  0  0
    9.0319    0.8405    0.0000 N   0  0  0
   10.3222    0.0947    0.0000 C   0  0  0
    9.0201    2.3556    0.0000 C   0  0  0
   11.6125    0.8641    0.0000 C   0  0  3
   10.3104    3.1132    0.0000 C   0  0  0
   11.6006    2.3793    0.0000 O   0  0  0
   12.9027    0.1184    0.0000 C   0  0  0
   14.2640    0.7458    0.0000 N   0  0  0
   13.0448   -1.3613    0.0000 N   0  0  0
   15.2584   -0.3551    0.0000 O   0  0  0
   14.5008   -1.6572    0.0000 C   0  0  0
  1  2  1
  3  1  1  1  0
  2  4  2
  2  5  1
  3  6  1
  3  7  1
  4  8  1
  5  9  1
  5 10  1
  6 11  2
  6 12  1
 11 13  1
 12 14  2
 13 15  1
 13 16  2
 15 17  1
 17 18  2
 17 19  1
 19 20  1
 19 21  1
 22 20  1
 21 23  1
 22 24  1
 22 25  1
 25 26  2
 25 27  1
 26 28  1
 27 29  2
  8  9  2
 14 16  1
 23 24  1
 28 29  1
M  END
> <COMPOUND_NAMES>
Compound 154 (S) (Page No: 60, Table No: 1)

> <Reference>
WO 2021/021761 A1

> <IC50_range_nM>
>5000

> <smiles>
C[C@@H](c1cccc(c1)NC(N1CCOC(C1)c1ncon1)=O)Sc1nncn1C

$$$$
C20H21N5OS
  MOLSOFT 03092310482D

 27 30  0  0  1  0  0  0  0  0999 V2000
    0.0000   -0.0000    0.0000 S   0  0  0
   -1.3113    0.7679    0.0000 C   0  0  0
    1.2876    0.7679    0.0000 C   0  0  2
   -2.6934    0.1654    0.0000 N   0  0  0
   -1.4767    2.2681    0.0000 N   0  0  0
    2.5753    0.0236    0.0000 C   0  0  0
    1.2758    2.2800    0.0000 C   0  0  0
   -3.7094    1.2876    0.0000 N   0  0  0
   -2.9533    2.5871    0.0000 C   0  0  0
   -0.3780    3.2841    0.0000 C   0  0  0
    3.8629    0.7915    0.0000 C   0  0  0
    2.5635   -1.4648    0.0000 C   0  0  0
    5.1506    0.0473    0.0000 C   0  0  0
    3.8511   -2.2091    0.0000 C   0  0  0
    6.4382    0.8151    0.0000 N   0  0  0
    5.1388   -1.4412    0.0000 C   0  0  0
    7.7258    0.0709    0.0000 C   0  0  0
    7.7140   -1.4176    0.0000 O   0  0  0
    9.0135    0.8387    0.0000 N   0  0  0
    9.1552    2.3390    0.0000 C   0  0  0
   10.3720    0.2363    0.0000 C   0  0  0
   10.6083    2.6580    0.0000 C   0  0  0
    8.1393    3.4613    0.0000 C   0  0  0
   11.3643    1.3585    0.0000 C   0  0  0
   11.0572    4.0992    0.0000 C   0  0  0
    8.5882    4.9025    0.0000 C   0  0  0
   10.0412    5.2214    0.0000 C   0  0  0
  1  2  1
  3  1  1  1  0
  2  4  2
  2  5  1
  3  6  1
  3  7  1
  4  8  1
  5  9  1
  5 10  1
  6 11  2
  6 12  1
 11 13  1
 12 14  2
 13 15  1
 13 16  2
 15 17  1
 17 18  2
 17 19  1
 19 20  1
 19 21  1
 20 22  2
 20 23  1
 21 24  1
 22 25  1
 23 26  2
 25 27  2
  8  9  2
 14 16  1
 22 24  1
 26 27  1
M  END
> <COMPOUND_NAMES>
Compound 7 (S) (Page No: 56, Table No: 1)

> <Reference>
WO 2021/021761 A1

> <IC50_range_nM>
>5000

> <smiles>
C[C@@H](c1cccc(c1)NC(N1CCc2ccccc12)=O)Sc1nncn1C

$$$$
C21H23N5OS
  MOLSOFT 03092310482D

 28 31  0  0  1  0  0  0  0  0999 V2000
    0.0000   -0.0000    0.0000 S   0  0  0
   -1.3119    0.7564    0.0000 C   0  0  0
    1.2883    0.7564    0.0000 C   0  0  2
   -2.6947    0.1536    0.0000 N   0  0  0
   -1.4774    2.2574    0.0000 N   0  0  0
    2.5765    0.0236    0.0000 C   0  0  0
    1.2764    2.2692    0.0000 C   0  0  0
   -3.7111    1.2764    0.0000 N   0  0  0
   -2.9547    2.5765    0.0000 C   0  0  0
   -0.3782    3.2738    0.0000 C   0  0  0
    3.8648    0.7800    0.0000 C   0  0  0
    2.5647   -1.4655    0.0000 C   0  0  0
    5.1530    0.0473    0.0000 C   0  0  0
    3.8529   -2.1983    0.0000 C   0  0  0
    6.4413    0.8037    0.0000 N   0  0  0
    5.1412   -1.4419    0.0000 C   0  0  0
    7.7295    0.0709    0.0000 C   0  0  0
    7.7177   -1.4183    0.0000 O   0  0  0
    9.0178    0.8273    0.0000 N   0  0  0
    9.0059    2.3401    0.0000 C   0  0  0
   10.3060    0.0827    0.0000 C   0  0  0
   10.2942    3.1084    0.0000 C   0  0  0
    7.6941    3.0965    0.0000 C   0  0  0
   11.5943    0.8510    0.0000 C   0  0  0
   10.2824    4.6212    0.0000 C   0  0  0
   11.5824    2.3756    0.0000 C   0  0  0
    7.6822    4.6093    0.0000 C   0  0  0
    8.9705    5.3776    0.0000 C   0  0  0
  1  2  1
  3  1  1  1  0
  2  4  2
  2  5  1
  3  6  1
  3  7  1
  4  8  1
  5  9  1
  5 10  1
  6 11  2
  6 12  1
 11 13  1
 12 14  2
 13 15  1
 13 16  2
 15 17  1
 17 18  2
 17 19  1
 19 20  1
 19 21  1
 20 22  2
 20 23  1
 21 24  1
 22 25  1
 22 26  1
 23 27  2
 25 28  2
  8  9  2
 14 16  1
 24 26  1
 27 28  1
M  END
> <COMPOUND_NAMES>
Compound 8 (S) (Page No: 56, Table No: 1)

> <Reference>
WO 2021/021761 A1

> <IC50_range_nM>
>5000

> <smiles>
C[C@@H](c1cccc(c1)NC(N1CCCc2ccccc12)=O)Sc1nncn1C

$$$$
C18H17F3N6OS
  MOLSOFT 03092310482D

 29 31  0  0  1  0  0  0  0  0999 V2000
    0.0000   -0.0000    0.0000 S   0  0  0
   -1.3139    0.7694    0.0000 C   0  0  0
    1.2902    0.7694    0.0000 C   0  0  2
   -2.6987    0.1657    0.0000 N   0  0  0
   -1.4796    2.2726    0.0000 N   0  0  0
    2.5804    0.0237    0.0000 C   0  0  0
    1.2784    2.2845    0.0000 C   0  0  0
   -3.7167    1.2902    0.0000 N   0  0  0
   -2.9591    2.5922    0.0000 C   0  0  0
   -0.3788    3.2906    0.0000 C   0  0  0
    3.8706    0.7931    0.0000 C   0  0  0
    2.5685   -1.4677    0.0000 C   0  0  0
    5.1608    0.0473    0.0000 C   0  0  0
    3.8587   -2.2134    0.0000 C   0  0  0
    6.4509    0.8167    0.0000 N   0  0  0
    5.1489   -1.4441    0.0000 C   0  0  0
    7.7411    0.0710    0.0000 C   0  0  0
    7.7293   -1.4204    0.0000 O   0  0  0
    9.0313    0.8404    0.0000 N   0  0  0
   10.3215    0.0947    0.0000 C   0  0  0
   11.6117    0.8641    0.0000 N   0  0  0
   10.3097   -1.3967    0.0000 C   0  0  0
   12.9019    0.1184    0.0000 C   0  0  0
   11.5999   -2.1424    0.0000 C   0  0  0
   12.8900   -1.3730    0.0000 C   0  0  0
   14.1921    0.8877    0.0000 C   0  0  0
   14.9259   -0.4024    0.0000 F   0  0  0
   15.4823    1.6453    0.0000 F   0  0  0
   13.4345    2.2016    0.0000 F   0  0  0
  1  2  1
  3  1  1  1  0
  2  4  2
  2  5  1
  3  6  1
  3  7  1
  4  8  1
  5  9  1
  5 10  1
  6 11  2
  6 12  1
 11 13  1
 12 14  2
 13 15  1
 13 16  2
 15 17  1
 17 18  2
 17 19  1
 19 20  1
 20 21  2
 20 22  1
 21 23  1
 22 24  2
 23 25  2
 23 26  1
 26 27  1
 26 28  1
 26 29  1
  8  9  2
 14 16  1
 24 25  1
M  END
> <COMPOUND_NAMES>
Compound 3 (S) (Page No: 56, Table No: 1)

> <Reference>
WO 2021/021761 A1

> <IC50_range_nM>
101-1000

> <smiles>
C[C@@H](c1cccc(c1)NC(Nc1cccc(C(F)(F)F)n1)=O)Sc1nncn1C

$$$$
C16H17N7OS
  MOLSOFT 03092310482D

 25 27  0  0  1  0  0  0  0  0999 V2000
    0.0000   -0.0000    0.0000 S   0  0  0
   -1.3138    0.7694    0.0000 C   0  0  0
    1.2902    0.7694    0.0000 C   0  0  2
   -2.6987    0.1657    0.0000 N   0  0  0
   -1.4795    2.2726    0.0000 N   0  0  0
    2.5803    0.0237    0.0000 C   0  0  0
    1.2783    2.2844    0.0000 C   0  0  0
   -3.7166    1.2902    0.0000 N   0  0  0
   -2.9591    2.5922    0.0000 C   0  0  0
   -0.3788    3.2905    0.0000 C   0  0  0
    3.8705    0.7930    0.0000 C   0  0  0
    2.5685   -1.4677    0.0000 C   0  0  0
    5.1607    0.0473    0.0000 C   0  0  0
    3.8587   -2.2134    0.0000 C   0  0  0
    5.1488   -1.4440    0.0000 N   0  0  0
    6.4508    0.8167    0.0000 N   0  0  0
    7.7410    0.0710    0.0000 C   0  0  0
    7.7291   -1.4204    0.0000 O   0  0  0
    9.0311    0.8404    0.0000 N   0  0  0
   10.3213    0.0947    0.0000 C   0  0  0
   11.6115    0.8641    0.0000 N   0  0  0
   10.3095   -1.3967    0.0000 C   0  0  0
   12.9016    0.1184    0.0000 C   0  0  0
   11.5996   -2.1424    0.0000 C   0  0  0
   12.8898   -1.3730    0.0000 C   0  0  0
  1  2  1
  3  1  1  1  0
  2  4  2
  2  5  1
  3  6  1
  3  7  1
  4  8  1
  5  9  1
  5 10  1
  6 11  2
  6 12  1
 11 13  1
 12 14  2
 13 15  2
 13 16  1
 16 17  1
 17 18  2
 17 19  1
 19 20  1
 20 21  2
 20 22  1
 21 23  1
 22 24  2
 23 25  2
  8  9  2
 14 15  1
 24 25  1
M  END
> <COMPOUND_NAMES>
Compound 121 (S) (Page No: 58, Table No: 1)

> <Reference>
WO 2021/021761 A1

> <IC50_range_nM>
>5000

> <smiles>
C[C@@H](c1ccnc(c1)NC(Nc1ccccn1)=O)Sc1nncn1C

$$$$
C18H20N6O2S
  MOLSOFT 03092310482D

 27 29  0  0  1  0  0  0  0  0999 V2000
    0.0000   -0.0000    0.0000 S   0  0  0
   -1.3100    0.7553    0.0000 C   0  0  0
   -0.0118   -1.4870    0.0000 C   0  0  2
   -2.6908    0.1534    0.0000 N   0  0  0
   -1.4752    2.2541    0.0000 N   0  0  0
    1.2746   -2.2305    0.0000 C   0  0  0
   -1.3218   -2.2305    0.0000 C   0  0  0
   -3.7057    1.2746    0.0000 N   0  0  0
   -2.9504    2.5728    0.0000 C   0  0  0
   -0.3777    3.2691    0.0000 C   0  0  0
    2.5610   -1.4752    0.0000 C   0  0  0
    1.2628   -3.7175    0.0000 C   0  0  0
    3.8474   -2.2187    0.0000 C   0  0  0
    2.5492   -4.4493    0.0000 C   0  0  0
    5.1338   -1.4634    0.0000 N   0  0  0
    3.8356   -3.7057    0.0000 C   0  0  0
    5.1220    0.0472    0.0000 C   0  0  0
    3.8120    0.8025    0.0000 O   0  0  0
    6.4083    0.8025    0.0000 N   0  0  0
    6.3965    2.3131    0.0000 C   0  0  0
    5.0865    3.0685    0.0000 N   0  0  0
    7.6829    3.0685    0.0000 C   0  0  0
    5.0747    4.5791    0.0000 C   0  0  0
    7.6711    4.5791    0.0000 C   0  0  0
    3.7648    5.3344    0.0000 O   0  0  0
    6.3611    5.3344    0.0000 C   0  0  0
    2.4548    4.6027    0.0000 C   0  0  0
  1  2  1
  3  1  1  6  0
  2  4  2
  2  5  1
  3  6  1
  3  7  1
  4  8  1
  5  9  1
  5 10  1
  6 11  2
  6 12  1
 11 13  1
 12 14  2
 13 15  1
 13 16  2
 15 17  1
 17 18  2
 17 19  1
 19 20  1
 20 21  2
 20 22  1
 21 23  1
 22 24  2
 23 25  1
 23 26  2
 25 27  1
  8  9  2
 14 16  1
 24 26  1
M  END
> <COMPOUND_NAMES>
Compound 4 (S) (Page No: 56, Table No: 1)

> <Reference>
WO 2021/021761 A1

> <IC50_range_nM>
>5000

> <smiles>
C[C@@H](c1cccc(c1)NC(Nc1cccc(n1)OC)=O)Sc1nncn1C

$$$$
C18H16F3N5OS
  MOLSOFT 03092310482D

 28 30  0  0  1  0  0  0  0  0999 V2000
    0.0000   -0.0000    0.0000 S   0  0  0
   -1.3128    0.7570    0.0000 C   0  0  0
    1.2892    0.7570    0.0000 C   0  0  2
   -2.6966    0.1538    0.0000 N   0  0  0
   -1.4784    2.2590    0.0000 N   0  0  0
    2.5784    0.0237    0.0000 C   0  0  0
    1.2774    2.2709    0.0000 C   0  0  0
   -3.7138    1.2774    0.0000 N   0  0  0
   -2.9568    2.5784    0.0000 C   0  0  0
   -0.3785    3.2762    0.0000 C   0  0  0
    3.8676    0.7806    0.0000 C   0  0  0
    2.5665   -1.4666    0.0000 C   0  0  0
    5.1567    0.0473    0.0000 C   0  0  0
    3.8557   -2.1999    0.0000 C   0  0  0
    6.4459    0.8043    0.0000 C   0  0  0
    5.1449   -1.4429    0.0000 C   0  0  0
    7.7351    0.0710    0.0000 O   0  0  0
    6.4341    2.3182    0.0000 N   0  0  0
    7.7233    3.0751    0.0000 C   0  0  0
    9.0125    2.3418    0.0000 N   0  0  0
    7.7115    4.5890    0.0000 C   0  0  0
   10.3017    3.0988    0.0000 C   0  0  0
    9.0006    5.3460    0.0000 C   0  0  0
   10.2898    4.6127    0.0000 C   0  0  0
    8.9888    6.8599    0.0000 C   0  0  0
    8.9770    8.3738    0.0000 F   0  0  0
   10.4791    6.8717    0.0000 F   0  0  0
    7.4749    6.8717    0.0000 F   0  0  0
  1  2  1
  3  1  1  1  0
  2  4  2
  2  5  1
  3  6  1
  3  7  1
  4  8  1
  5  9  1
  5 10  1
  6 11  2
  6 12  1
 11 13  1
 12 14  2
 13 15  1
 13 16  2
 15 17  2
 15 18  1
 18 19  1
 19 20  2
 19 21  1
 20 22  1
 21 23  2
 22 24  2
 23 25  1
 25 26  1
 25 27  1
 25 28  1
  8  9  2
 14 16  1
 23 24  1
M  END
> <COMPOUND_NAMES>
Compound 36 (S) (Page No: 57, Table No: 1)

> <Reference>
WO 2021/021761 A1

> <IC50_range_nM>
1001-5000

> <smiles>
C[C@@H](c1cccc(c1)C(Nc1cc(ccn1)C(F)(F)F)=O)Sc1nncn1C

$$$$
C17H16F5N5OS2
  MOLSOFT 03092310482D

 30 32  0  0  1  0  0  0  0  0999 V2000
    0.0000   -0.0000    0.0000 S   0  0  0
   -0.7530   -1.2825    0.0000 F   0  0  0
    1.2825   -0.7295    0.0000 F   0  0  0
    0.7295    1.3060    0.0000 F   0  0  0
   -1.3060   -0.7295    0.0000 F   0  0  0
    1.2825    0.7530    0.0000 F   0  0  0
   -1.3060    0.7530    0.0000 C   0  0  0
   -1.3178    2.2591    0.0000 C   0  0  0
   -2.6121    0.0235    0.0000 C   0  0  0
   -2.6238    3.0121    0.0000 C   0  0  0
   -3.9181    0.7766    0.0000 C   0  0  0
   -2.6356    4.5182    0.0000 C   0  0  0
   -3.9299    2.2826    0.0000 C   0  0  0
   -3.9416    5.2712    0.0000 O   0  0  0
   -1.3531    5.2712    0.0000 N   0  0  0
   -1.3649    6.7773    0.0000 C   0  0  0
   -0.0824    7.5303    0.0000 N   0  0  0
   -2.6709    7.5303    0.0000 C   0  0  0
   -0.0941    9.0363    0.0000 C   0  0  0
   -2.6827    9.0363    0.0000 C   0  0  0
   -1.4002    9.7894    0.0000 C   0  0  0
   -3.9887    9.7894    0.0000 C   0  0  1
   -5.2947    9.0599    0.0000 S   0  0  0
   -4.0005   11.2954    0.0000 C   0  0  0
   -6.6008    9.8129    0.0000 C   0  0  0
   -7.9774    9.2128    0.0000 N   0  0  0
   -6.7655   11.3072    0.0000 N   0  0  0
   -8.9893   10.3306    0.0000 N   0  0  0
   -8.2362   11.6249    0.0000 C   0  0  0
   -5.6712   12.3191    0.0000 C   0  0  0
  1  2  1
  1  3  1
  1  4  1
  1  5  1
  1  6  1
  1  7  1
  7  8  2
  7  9  1
  8 10  1
  9 11  2
 10 12  1
 10 13  2
 12 14  2
 12 15  1
 15 16  1
 16 17  2
 16 18  1
 17 19  1
 18 20  2
 19 21  2
 22 20  1
 22 23  1  1  0
 22 24  1
 23 25  1
 25 26  2
 25 27  1
 26 28  1
 27 29  1
 27 30  1
 11 13  1
 20 21  1
 28 29  2
M  END
> <COMPOUND_NAMES>
Example 116 (S) (Page No: 404)

> <Reference>
WO2019148005

> <IC50_range_nM>
3001-10000

> <smiles>
C[C@@H](c1ccnc(c1)NC(c1cccc(c1)S(F)(F)(F)(F)F)=O)Sc1nncn1C

$$$$
C18H18ClN5OS
  MOLSOFT 03092310482D

 26 28  0  0  1  0  0  0  0  0999 V2000
    0.0000   -0.0000    0.0000 Cl  0  0  0
   -0.0118    1.5055    0.0000 C   0  0  0
    1.2703    2.2583    0.0000 C   0  0  0
   -1.3173    2.2583    0.0000 C   0  0  0
    1.2585    3.7638    0.0000 N   0  0  0
    2.5523    1.5291    0.0000 C   0  0  0
   -1.3291    3.7638    0.0000 C   0  0  0
   -0.0470    4.5166    0.0000 C   0  0  0
   -0.0588    6.0221    0.0000 C   0  0  0
   -1.3644    6.7749    0.0000 O   0  0  0
    1.2232    6.7749    0.0000 N   0  0  0
    1.2115    8.2804    0.0000 C   0  0  0
   -0.0941    9.0332    0.0000 C   0  0  0
    2.4935    9.0332    0.0000 C   0  0  0
   -0.1059   10.5387    0.0000 C   0  0  0
    2.4818   10.5387    0.0000 C   0  0  0
    1.1762   11.2915    0.0000 C   0  0  0
   -1.4114   11.2915    0.0000 C   0  0  1
   -2.7170   10.5622    0.0000 S   0  0  0
   -1.4232   12.7970    0.0000 C   0  0  0
   -4.0226   11.3150    0.0000 C   0  0  0
   -5.3987   10.7151    0.0000 N   0  0  0
   -4.1873   12.8088    0.0000 N   0  0  0
   -6.4103   11.8325    0.0000 N   0  0  0
   -5.6575   13.1263    0.0000 C   0  0  0
   -3.0934   13.8203    0.0000 C   0  0  0
  1  2  1
  2  3  2
  2  4  1
  3  5  1
  3  6  1
  4  7  2
  5  8  2
  8  9  1
  9 10  2
  9 11  1
 11 12  1
 12 13  2
 12 14  1
 13 15  1
 14 16  2
 15 17  2
 18 15  1
 18 19  1  1  0
 18 20  1
 19 21  1
 21 22  2
 21 23  1
 22 24  1
 23 25  1
 23 26  1
  7  8  1
 16 17  1
 24 25  2
M  END
> <COMPOUND_NAMES>
Example 39 (S) (Page No: 370)

> <Reference>
WO2019148005

> <IC50_range_nM>
101-300

> <smiles>
Cc1c(ccc(C(Nc2cccc(c2)[C@H](C)Sc2nncn2C)=O)n1)[Cl]

$$$$
C18H18ClN5OS
  MOLSOFT 03092310482D

 26 28  0  0  1  0  0  0  0  0999 V2000
    0.0000   -0.0000    0.0000 Cl  0  0  0
   -0.0118    1.5055    0.0000 C   0  0  0
    1.2703    2.2583    0.0000 C   0  0  0
   -1.3173    2.2583    0.0000 C   0  0  0
    1.2585    3.7638    0.0000 C   0  0  0
    2.5523    1.5291    0.0000 C   0  0  0
   -1.3291    3.7638    0.0000 N   0  0  0
   -0.0470    4.5166    0.0000 C   0  0  0
   -0.0588    6.0221    0.0000 C   0  0  0
   -1.3644    6.7749    0.0000 O   0  0  0
    1.2232    6.7749    0.0000 N   0  0  0
    1.2115    8.2804    0.0000 C   0  0  0
   -0.0941    9.0332    0.0000 C   0  0  0
    2.4935    9.0332    0.0000 C   0  0  0
   -0.1059   10.5387    0.0000 C   0  0  0
    2.4818   10.5387    0.0000 C   0  0  0
    1.1762   11.2915    0.0000 C   0  0  0
   -1.4114   11.2915    0.0000 C   0  0  1
   -2.7170   10.5622    0.0000 S   0  0  0
   -1.4232   12.7970    0.0000 C   0  0  0
   -4.0226   11.3150    0.0000 C   0  0  0
   -5.3987   10.7151    0.0000 N   0  0  0
   -4.1873   12.8088    0.0000 N   0  0  0
   -6.4103   11.8325    0.0000 N   0  0  0
   -5.6575   13.1263    0.0000 C   0  0  0
   -3.0934   13.8203    0.0000 C   0  0  0
  1  2  1
  2  3  2
  2  4  1
  3  5  1
  3  6  1
  4  7  2
  5  8  2
  8  9  1
  9 10  2
  9 11  1
 11 12  1
 12 13  2
 12 14  1
 13 15  1
 14 16  2
 15 17  2
 18 15  1
 18 19  1  1  0
 18 20  1
 19 21  1
 21 22  2
 21 23  1
 22 24  1
 23 25  1
 23 26  1
  7  8  1
 16 17  1
 24 25  2
M  END
> <COMPOUND_NAMES>
Example 34 (S) (Page No: 369)

> <Reference>
WO2019148005

> <IC50_range_nM>
301-1000

> <smiles>
Cc1cc(C(Nc2cccc(c2)[C@H](C)Sc2nncn2C)=O)ncc1[Cl]

$$$$
C20H22ClN5O2S
  MOLSOFT 03092310482D

 29 31  0  0  1  0  0  0  0  0999 V2000
    0.0000   -0.0000    0.0000 Cl  0  0  0
   -0.0118    1.5069    0.0000 C   0  0  0
    1.2715    2.2604    0.0000 C   0  0  0
   -1.3186    2.2604    0.0000 C   0  0  0
    1.2597    3.7673    0.0000 C   0  0  0
    2.5547    1.5305    0.0000 C   0  0  0
   -1.3303    3.7673    0.0000 N   0  0  0
   -0.0471    4.5208    0.0000 C   0  0  0
    3.2846    2.8372    0.0000 O   0  0  0
    1.8012    0.2472    0.0000 C   0  0  0
    3.8379    0.8006    0.0000 C   0  0  0
   -0.0589    6.0277    0.0000 C   0  0  0
   -1.3656    6.7811    0.0000 O   0  0  0
    1.2244    6.7811    0.0000 N   0  0  0
    1.2126    8.2881    0.0000 C   0  0  0
   -0.0942    9.0415    0.0000 C   0  0  0
    2.4958    9.0415    0.0000 C   0  0  0
   -0.1060   10.5484    0.0000 C   0  0  0
    2.4841   10.5484    0.0000 C   0  0  0
    1.1773   11.3019    0.0000 C   0  0  0
   -1.4127   11.3019    0.0000 C   0  0  1
   -2.7195   10.5720    0.0000 S   0  0  0
   -1.4245   12.8088    0.0000 C   0  0  0
   -4.0263   11.3254    0.0000 C   0  0  0
   -5.4037   10.7250    0.0000 N   0  0  0
   -4.1911   12.8206    0.0000 N   0  0  0
   -6.4162   11.8435    0.0000 N   0  0  0
   -5.6627   13.1385    0.0000 C   0  0  0
   -3.0963   13.8331    0.0000 C   0  0  0
  1  2  1
  2  3  2
  2  4  1
  3  5  1
  3  6  1
  4  7  2
  5  8  2
  6  9  1
  6 10  1
  6 11  1
  8 12  1
 12 13  2
 12 14  1
 14 15  1
 15 16  2
 15 17  1
 16 18  1
 17 19  2
 18 20  2
 21 18  1
 21 22  1  1  0
 21 23  1
 22 24  1
 24 25  2
 24 26  1
 25 27  1
 26 28  1
 26 29  1
  7  8  1
 19 20  1
 27 28  2
M  END
> <COMPOUND_NAMES>
Example 55 (S) (Page No: 376)

> <Reference>
WO2019148005

> <IC50_range_nM>
301-1000

> <smiles>
C[C@@H](c1cccc(c1)NC(c1cc(c(cn1)[Cl])C(C)(C)O)=O)Sc1nncn1C

$$$$
C20H23N5OS
  MOLSOFT 03092310482D

 27 29  0  0  1  0  0  0  0  0999 V2000
    0.0000   -0.0000    0.0000 S   0  0  0
   -0.3290   -1.4568    0.0000 C   0  0  0
    1.4215    0.4699    0.0000 C   0  0  2
    0.6579   -2.5611    0.0000 N   0  0  0
   -1.7152   -2.0559    0.0000 N   0  0  0
    1.7270    1.9502    0.0000 C   0  0  0
    2.5259   -0.5169    0.0000 C   0  0  0
   -0.1057   -3.8534    0.0000 N   0  0  0
   -1.5743   -3.5362    0.0000 C   0  0  0
   -3.0311   -1.2923    0.0000 C   0  0  0
    3.1368    2.4201    0.0000 C   0  0  0
    0.5992    2.9723    0.0000 C   0  0  0
    3.4422    3.9004    0.0000 C   0  0  0
    0.9046    4.4526    0.0000 C   0  0  0
    4.8520    4.3704    0.0000 N   0  0  0
    2.3144    4.9225    0.0000 C   0  0  0
    5.1575    5.8506    0.0000 C   0  0  0
    4.0297    6.8610    0.0000 O   0  0  0
    6.5673    6.3206    0.0000 C   0  0  0
    6.8727    7.8009    0.0000 N   0  0  0
    7.6716    5.3220    0.0000 C   0  0  0
    8.2825    8.2708    0.0000 C   0  0  0
    9.0814    5.8037    0.0000 C   0  0  0
    9.3869    7.2722    0.0000 C   0  0  0
    8.5880    9.7511    0.0000 C   0  0  0
    7.4602   10.7614    0.0000 C   0  0  0
    9.9978   10.2210    0.0000 C   0  0  0
  1  2  1
  3  1  1  6  0
  2  4  2
  2  5  1
  3  6  1
  3  7  1
  4  8  1
  5  9  1
  5 10  1
  6 11  2
  6 12  1
 11 13  1
 12 14  2
 13 15  1
 13 16  2
 15 17  1
 17 18  2
 17 19  1
 19 20  2
 19 21  1
 20 22  1
 21 23  2
 22 24  2
 22 25  1
 25 26  1
 25 27  1
  8  9  2
 14 16  1
 23 24  1
M  END
> <COMPOUND_NAMES>
Example 33 (S) (Page No: 368)

> <Reference>
WO2019148005

> <IC50_range_nM>
101-300

> <smiles>
CC(C)c1cccc(C(Nc2cccc(c2)[C@H](C)Sc2nncn2C)=O)n1

$$$$
C19H21N5OS
  MOLSOFT 03092310482D

 26 28  0  0  1  0  0  0  0  0999 V2000
    0.0000   -0.0000    0.0000 S   0  0  0
   -1.3144    0.7579    0.0000 C   0  0  0
    1.2907    0.7579    0.0000 C   0  0  2
   -2.6999    0.1539    0.0000 N   0  0  0
   -1.4802    2.2618    0.0000 N   0  0  0
    2.5815    0.0237    0.0000 C   0  0  0
    1.2789    2.2736    0.0000 C   0  0  0
   -3.7183    1.2789    0.0000 N   0  0  0
   -2.9604    2.5815    0.0000 C   0  0  0
   -0.3789    3.2801    0.0000 C   0  0  0
    2.5696   -1.4684    0.0000 C   0  0  0
    3.8722    0.7816    0.0000 C   0  0  0
    3.8604   -2.2026    0.0000 C   0  0  0
    5.1630    0.0474    0.0000 C   0  0  0
    3.8485   -3.6946    0.0000 N   0  0  0
    5.1511   -1.4447    0.0000 C   0  0  0
    2.5341   -4.4288    0.0000 C   0  0  0
    1.2197   -3.6709    0.0000 O   0  0  0
    2.5223   -5.9208    0.0000 C   0  0  0
    3.8130   -6.6669    0.0000 N   0  0  0
    1.2079   -6.6669    0.0000 C   0  0  0
    3.8012   -8.1589    0.0000 C   0  0  0
    1.1960   -8.1589    0.0000 C   0  0  0
    2.4868   -8.8931    0.0000 C   0  0  0
    5.0919   -8.8931    0.0000 C   0  0  0
   -0.1184   -8.8931    0.0000 C   0  0  0
  1  2  1
  3  1  1  1  0
  2  4  2
  2  5  1
  3  6  1
  3  7  1
  4  8  1
  5  9  1
  5 10  1
  6 11  2
  6 12  1
 11 13  1
 12 14  2
 13 15  1
 13 16  2
 15 17  1
 17 18  2
 17 19  1
 19 20  2
 19 21  1
 20 22  1
 21 23  2
 22 24  2
 22 25  1
 23 26  1
  8  9  2
 14 16  1
 23 24  1
M  END
> <COMPOUND_NAMES>
Example 56 (S) (Page No: 376)

> <Reference>
WO2019148005

> <IC50_range_nM>
301-1000

> <smiles>
Cc1cc(C)nc(c1)C(Nc1cccc(c1)[C@H](C)Sc1nncn1C)=O

$$$$
C19H21N5OS
  MOLSOFT 03092310482D

 26 28  0  0  1  0  0  0  0  0999 V2000
    0.0000   -0.0000    0.0000 S   0  0  0
   -1.3152    0.7583    0.0000 C   0  0  0
    1.2915    0.7583    0.0000 C   0  0  2
   -2.7015    0.1540    0.0000 N   0  0  0
   -1.4811    2.2631    0.0000 N   0  0  0
    2.5830    0.0237    0.0000 C   0  0  0
    1.2797    2.2750    0.0000 C   0  0  0
   -3.7205    1.2797    0.0000 N   0  0  0
   -2.9622    2.5830    0.0000 C   0  0  0
   -0.3792    3.2821    0.0000 C   0  0  0
    2.5712   -1.4692    0.0000 C   0  0  0
    3.8745    0.7820    0.0000 C   0  0  0
    3.8627   -2.2039    0.0000 C   0  0  0
    5.1661    0.0474    0.0000 C   0  0  0
    3.8508   -3.6968    0.0000 N   0  0  0
    5.1542   -1.4455    0.0000 C   0  0  0
    2.5356   -4.4314    0.0000 C   0  0  0
    1.2204   -3.6731    0.0000 O   0  0  0
    2.5238   -5.9244    0.0000 C   0  0  0
    3.8153   -6.6590    0.0000 N   0  0  0
    1.2086   -6.6590    0.0000 C   0  0  0
    3.8035   -8.1520    0.0000 C   0  0  0
    1.1967   -8.1520    0.0000 C   0  0  0
    2.4882   -8.8866    0.0000 C   0  0  0
    5.0950   -8.8866    0.0000 C   0  0  0
    2.4764  -10.3795    0.0000 C   0  0  0
  1  2  1
  3  1  1  1  0
  2  4  2
  2  5  1
  3  6  1
  3  7  1
  4  8  1
  5  9  1
  5 10  1
  6 11  2
  6 12  1
 11 13  1
 12 14  2
 13 15  1
 13 16  2
 15 17  1
 17 18  2
 17 19  1
 19 20  2
 19 21  1
 20 22  1
 21 23  2
 22 24  2
 22 25  1
 24 26  1
  8  9  2
 14 16  1
 23 24  1
M  END
> <COMPOUND_NAMES>
Example 35 (S) (Page No: 369)

> <Reference>
WO2019148005

> <IC50_range_nM>
301-1000

> <smiles>
Cc1ccc(C(Nc2cccc(c2)[C@H](C)Sc2nncn2C)=O)nc1C

$$$$
C18H20N6OS
  MOLSOFT 03092310482D

 26 28  0  0  1  0  0  0  0  0999 V2000
    0.0000   -0.0000    0.0000 S   0  0  0
   -0.3288   -1.4562    0.0000 C   0  0  0
    1.4209    0.4697    0.0000 C   0  0  2
    0.6576   -2.5601    0.0000 N   0  0  0
   -1.7145   -2.0551    0.0000 N   0  0  0
    1.7263    1.9494    0.0000 C   0  0  0
    2.5248   -0.5167    0.0000 C   0  0  0
   -0.1057   -3.8518    0.0000 N   0  0  0
   -1.5736   -3.5348    0.0000 C   0  0  0
   -3.0298   -1.2918    0.0000 C   0  0  0
    3.1355    2.4191    0.0000 C   0  0  0
    0.5989    2.9711    0.0000 C   0  0  0
    3.4408    3.8988    0.0000 C   0  0  0
    0.9042    4.4507    0.0000 C   0  0  0
    4.8500    4.3685    0.0000 N   0  0  0
    2.3134    4.9205    0.0000 C   0  0  0
    5.1553    5.8482    0.0000 C   0  0  0
    4.0280    6.8581    0.0000 O   0  0  0
    6.5645    6.3179    0.0000 C   0  0  0
    7.6684    5.3197    0.0000 N   0  0  0
    6.8699    7.7976    0.0000 C   0  0  0
    9.0776    5.8012    0.0000 C   0  0  0
    8.2791    8.2673    0.0000 C   0  0  0
    9.3829    7.2809    0.0000 C   0  0  0
    8.5844    9.7470    0.0000 N   0  0  0
    7.4570   10.7569    0.0000 C   0  0  0
  1  2  1
  3  1  1  6  0
  2  4  2
  2  5  1
  3  6  1
  3  7  1
  4  8  1
  5  9  1
  5 10  1
  6 11  2
  6 12  1
 11 13  1
 12 14  2
 13 15  1
 13 16  2
 15 17  1
 17 18  2
 17 19  1
 19 20  2
 19 21  1
 20 22  1
 21 23  2
 22 24  2
 23 25  1
 25 26  1
  8  9  2
 14 16  1
 23 24  1
M  END
> <COMPOUND_NAMES>
Example 60 (S) (Page No: 379)

> <Reference>
WO2019148005

> <IC50_range_nM>
1001-3000

> <smiles>
C[C@@H](c1cccc(c1)NC(c1cc(ccn1)NC)=O)Sc1nncn1C

$$$$
C19H20N6O2S
  MOLSOFT 03092310482D

 28 30  0  0  1  0  0  0  0  0999 V2000
    0.0000   -0.0000    0.0000 S   0  0  0
   -1.3141    0.7695    0.0000 C   0  0  0
    1.2904    0.7695    0.0000 C   0  0  2
   -2.6991    0.1657    0.0000 N   0  0  0
   -1.4798    2.2730    0.0000 N   0  0  0
    2.5808    0.0237    0.0000 C   0  0  0
    1.2785    2.2848    0.0000 C   0  0  0
   -3.7172    1.2904    0.0000 N   0  0  0
   -2.9596    2.5926    0.0000 C   0  0  0
   -0.3788    3.2911    0.0000 C   0  0  0
    2.5689   -1.4680    0.0000 C   0  0  0
    3.8711    0.7932    0.0000 C   0  0  0
    3.8593   -2.2019    0.0000 C   0  0  0
    5.1615    0.0474    0.0000 C   0  0  0
    3.8475   -3.6936    0.0000 N   0  0  0
    5.1497   -1.4443    0.0000 C   0  0  0
    2.5334   -4.4275    0.0000 C   0  0  0
    1.2193   -3.6699    0.0000 O   0  0  0
    2.5216   -5.9192    0.0000 C   0  0  0
    1.2075   -6.6531    0.0000 N   0  0  0
    3.8119   -6.6531    0.0000 C   0  0  0
    1.1957   -8.1448    0.0000 C   0  0  0
    3.8001   -8.1448    0.0000 C   0  0  0
    2.4860   -8.8906    0.0000 C   0  0  0
    5.0905   -8.8906    0.0000 N   0  0  0
    5.0786  -10.3822    0.0000 C   0  0  0
    3.7646  -11.1162    0.0000 O   0  0  0
    6.3690  -11.1162    0.0000 C   0  0  0
  1  2  1
  3  1  1  1  0
  2  4  2
  2  5  1
  3  6  1
  3  7  1
  4  8  1
  5  9  1
  5 10  1
  6 11  2
  6 12  1
 11 13  1
 12 14  2
 13 15  1
 13 16  2
 15 17  1
 17 18  2
 17 19  1
 19 20  2
 19 21  1
 20 22  1
 21 23  2
 22 24  2
 23 25  1
 25 26  1
 26 27  2
 26 28  1
  8  9  2
 14 16  1
 23 24  1
M  END
> <COMPOUND_NAMES>
Example 59 (S) (Page No: 378)

> <Reference>
WO2019148005

> <IC50_range_nM>
1001-3000

> <smiles>
CC(Nc1ccnc(c1)C(Nc1cccc(c1)[C@H](C)Sc1nncn1C)=O)=O

$$$$
C19H21N5O2S
  MOLSOFT 03092310482D

 27 29  0  0  1  0  0  0  0  0999 V2000
    0.0000   -0.0000    0.0000 S   0  0  0
   -1.3142    0.7696    0.0000 C   0  0  0
    1.2905    0.7696    0.0000 C   0  0  2
   -2.6995    0.1658    0.0000 N   0  0  0
   -1.4800    2.2732    0.0000 N   0  0  0
    2.5811    0.0237    0.0000 C   0  0  0
    1.2787    2.2851    0.0000 C   0  0  0
   -3.7177    1.2905    0.0000 N   0  0  0
   -2.9599    2.5929    0.0000 C   0  0  0
   -0.3789    3.2914    0.0000 C   0  0  0
    2.5692   -1.4681    0.0000 C   0  0  0
    3.8716    0.7933    0.0000 C   0  0  0
    3.8597   -2.2022    0.0000 C   0  0  0
    5.1621    0.0474    0.0000 C   0  0  0
    3.8479   -3.6940    0.0000 N   0  0  0
    5.1503   -1.4444    0.0000 C   0  0  0
    2.5337   -4.4281    0.0000 C   0  0  0
    1.2195   -3.6703    0.0000 O   0  0  0
    2.5219   -5.9199    0.0000 C   0  0  0
    1.2077   -6.6539    0.0000 N   0  0  0
    3.8124   -6.6539    0.0000 C   0  0  0
    1.1958   -8.1457    0.0000 C   0  0  0
    3.8006   -8.1457    0.0000 C   0  0  0
    2.4863   -8.8916    0.0000 C   0  0  0
    5.0911   -8.8916    0.0000 C   0  0  0
    5.0792  -10.3834    0.0000 C   0  0  0
    6.3698  -11.1175    0.0000 O   0  0  0
  1  2  1
  3  1  1  1  0
  2  4  2
  2  5  1
  3  6  1
  3  7  1
  4  8  1
  5  9  1
  5 10  1
  6 11  2
  6 12  1
 11 13  1
 12 14  2
 13 15  1
 13 16  2
 15 17  1
 17 18  2
 17 19  1
 19 20  2
 19 21  1
 20 22  1
 21 23  2
 22 24  2
 23 25  1
 25 26  1
 26 27  1
  8  9  2
 14 16  1
 23 24  1
M  END
> <COMPOUND_NAMES>
Example 46 (S) (Page No: 373)

> <Reference>
WO2019148005

> <IC50_range_nM>
1001-3000

> <smiles>
C[C@@H](c1cccc(c1)NC(c1cc(CCO)ccn1)=O)Sc1nncn1C

$$$$
C18H16F3N5OS
  MOLSOFT 03092310482D

 28 30  0  0  1  0  0  0  0  0999 V2000
    0.0000   -0.0000    0.0000 S   0  0  0
   -1.3153    0.7584    0.0000 C   0  0  0
    1.2916    0.7584    0.0000 C   0  0  2
   -2.7017    0.1540    0.0000 N   0  0  0
   -1.4812    2.2633    0.0000 N   0  0  0
    2.5832    0.0237    0.0000 C   0  0  0
    1.2798    2.2751    0.0000 C   0  0  0
   -3.7208    1.2798    0.0000 N   0  0  0
   -2.9624    2.5832    0.0000 C   0  0  0
   -0.3792    3.2823    0.0000 C   0  0  0
    2.5714   -1.4693    0.0000 C   0  0  0
    3.8748    0.7821    0.0000 C   0  0  0
    3.8630   -2.2040    0.0000 C   0  0  0
    5.1664    0.0474    0.0000 C   0  0  0
    3.8511   -3.6971    0.0000 N   0  0  0
    5.1546   -1.4456    0.0000 C   0  0  0
    2.5358   -4.4317    0.0000 C   0  0  0
    1.2205   -3.6734    0.0000 O   0  0  0
    2.5240   -5.9248    0.0000 C   0  0  0
    3.8156   -6.6595    0.0000 N   0  0  0
    1.2087   -6.6595    0.0000 C   0  0  0
    3.8037   -8.1525    0.0000 C   0  0  0
    1.1968   -8.1525    0.0000 C   0  0  0
    2.4884   -8.8872    0.0000 C   0  0  0
    5.0953   -8.8872    0.0000 C   0  0  0
    4.3369  -10.1788    0.0000 F   0  0  0
    6.3869   -9.6218    0.0000 F   0  0  0
    5.8300   -7.5719    0.0000 F   0  0  0
  1  2  1
  3  1  1  1  0
  2  4  2
  2  5  1
  3  6  1
  3  7  1
  4  8  1
  5  9  1
  5 10  1
  6 11  2
  6 12  1
 11 13  1
 12 14  2
 13 15  1
 13 16  2
 15 17  1
 17 18  2
 17 19  1
 19 20  2
 19 21  1
 20 22  1
 21 23  2
 22 24  2
 22 25  1
 25 26  1
 25 27  1
 25 28  1
  8  9  2
 14 16  1
 23 24  1
M  END
> <COMPOUND_NAMES>
Example 57a (S) (Page No: 377)

> <Reference>
WO2019148005

> <IC50_range_nM>
101-300

> <smiles>
C[C@@H](c1cccc(c1)NC(c1cccc(C(F)(F)F)n1)=O)Sc1nncn1C

$$$$
C18H16F3N5OS
  MOLSOFT 03092310482D

 28 30  0  0  1  0  0  0  0  0999 V2000
    0.0000   -0.0000    0.0000 S   0  0  0
   -1.3153    0.7584    0.0000 C   0  0  0
    1.2916    0.7584    0.0000 C   0  0  1
   -2.7017    0.1540    0.0000 N   0  0  0
   -1.4812    2.2633    0.0000 N   0  0  0
    2.5832    0.0237    0.0000 C   0  0  0
    1.2798    2.2751    0.0000 C   0  0  0
   -3.7208    1.2798    0.0000 N   0  0  0
   -2.9624    2.5832    0.0000 C   0  0  0
   -0.3792    3.2823    0.0000 C   0  0  0
    2.5714   -1.4693    0.0000 C   0  0  0
    3.8748    0.7821    0.0000 C   0  0  0
    3.8630   -2.2040    0.0000 C   0  0  0
    5.1664    0.0474    0.0000 C   0  0  0
    3.8511   -3.6971    0.0000 N   0  0  0
    5.1546   -1.4456    0.0000 C   0  0  0
    2.5358   -4.4317    0.0000 C   0  0  0
    1.2205   -3.6734    0.0000 O   0  0  0
    2.5240   -5.9248    0.0000 C   0  0  0
    3.8156   -6.6595    0.0000 N   0  0  0
    1.2087   -6.6595    0.0000 C   0  0  0
    3.8037   -8.1525    0.0000 C   0  0  0
    1.1968   -8.1525    0.0000 C   0  0  0
    2.4884   -8.8872    0.0000 C   0  0  0
    5.0953   -8.8872    0.0000 C   0  0  0
    4.3369  -10.1788    0.0000 F   0  0  0
    6.3869   -9.6218    0.0000 F   0  0  0
    5.8300   -7.5719    0.0000 F   0  0  0
  1  2  1
  3  1  1  6  0
  2  4  2
  2  5  1
  3  6  1
  3  7  1
  4  8  1
  5  9  1
  5 10  1
  6 11  2
  6 12  1
 11 13  1
 12 14  2
 13 15  1
 13 16  2
 15 17  1
 17 18  2
 17 19  1
 19 20  2
 19 21  1
 20 22  1
 21 23  2
 22 24  2
 22 25  1
 25 26  1
 25 27  1
 25 28  1
  8  9  2
 14 16  1
 23 24  1
M  END
> <COMPOUND_NAMES>
Example 57b (R) (Page No: 377)

> <Reference>
WO2019148005

> <IC50_range_nM>
1001-3000

> <smiles>
C[C@H](c1cccc(c1)NC(c1cccc(C(F)(F)F)n1)=O)Sc1nncn1C

$$$$
C19H18F3N5OS
  MOLSOFT 03092310482D

 29 31  0  0  1  0  0  0  0  0999 V2000
    0.0000   -0.0000    0.0000 S   0  0  0
   -1.3145    0.7579    0.0000 C   0  0  0
    1.2909    0.7579    0.0000 C   0  0  2
   -2.7001    0.1540    0.0000 N   0  0  0
   -1.4803    2.2619    0.0000 N   0  0  0
    2.5817    0.0237    0.0000 C   0  0  0
    1.2790    2.2738    0.0000 C   0  0  0
   -3.7186    1.2790    0.0000 N   0  0  0
   -2.9607    2.5817    0.0000 C   0  0  0
   -0.3790    3.2804    0.0000 C   0  0  0
    2.5699   -1.4685    0.0000 C   0  0  0
    3.8726    0.7816    0.0000 C   0  0  0
    3.8607   -2.2027    0.0000 C   0  0  0
    5.1634    0.0474    0.0000 C   0  0  0
    3.8489   -3.6949    0.0000 N   0  0  0
    5.1516   -1.4448    0.0000 C   0  0  0
    2.5343   -4.4292    0.0000 C   0  0  0
    1.2198   -3.6712    0.0000 O   0  0  0
    2.5225   -5.9213    0.0000 C   0  0  0
    1.2080   -6.6556    0.0000 N   0  0  0
    3.8133   -6.6556    0.0000 C   0  0  0
    1.1961   -8.1478    0.0000 C   0  0  0
    3.8015   -8.1478    0.0000 C   0  0  0
    2.4870   -8.8820    0.0000 C   0  0  0
   -0.1184   -8.8820    0.0000 C   0  0  0
    5.0923   -8.8820    0.0000 C   0  0  0
   -0.8764   -7.5675    0.0000 F   0  0  0
   -1.4330   -9.6162    0.0000 F   0  0  0
    0.6158  -10.1729    0.0000 F   0  0  0
  1  2  1
  3  1  1  1  0
  2  4  2
  2  5  1
  3  6  1
  3  7  1
  4  8  1
  5  9  1
  5 10  1
  6 11  2
  6 12  1
 11 13  1
 12 14  2
 13 15  1
 13 16  2
 15 17  1
 17 18  2
 17 19  1
 19 20  2
 19 21  1
 20 22  1
 21 23  2
 22 24  2
 22 25  1
 23 26  1
 25 27  1
 25 28  1
 25 29  1
  8  9  2
 14 16  1
 23 24  1
M  END
> <COMPOUND_NAMES>
Example 65 (S) (Page No: 381)

> <Reference>
WO2019148005

> <IC50_range_nM>
<100

> <smiles>
Cc1cc(C(Nc2cccc(c2)[C@H](C)Sc2nncn2C)=O)nc(c1)C(F)(F)F

$$$$
C18H18FN5OS
  MOLSOFT 03092310482D

 26 28  0  0  1  0  0  0  0  0999 V2000
    0.0000   -0.0000    0.0000 S   0  0  0
   -1.3152    0.7583    0.0000 C   0  0  0
    1.2915    0.7583    0.0000 C   0  0  2
   -2.7015    0.1540    0.0000 N   0  0  0
   -1.4811    2.2631    0.0000 N   0  0  0
    2.5830    0.0237    0.0000 C   0  0  0
    1.2797    2.2750    0.0000 C   0  0  0
   -3.7205    1.2797    0.0000 N   0  0  0
   -2.9622    2.5830    0.0000 C   0  0  0
   -0.3792    3.2821    0.0000 C   0  0  0
    2.5712   -1.4692    0.0000 C   0  0  0
    3.8745    0.7820    0.0000 C   0  0  0
    3.8627   -2.2039    0.0000 C   0  0  0
    5.1661    0.0474    0.0000 C   0  0  0
    3.8508   -3.6968    0.0000 N   0  0  0
    5.1542   -1.4455    0.0000 C   0  0  0
    2.5356   -4.4314    0.0000 C   0  0  0
    1.2204   -3.6731    0.0000 O   0  0  0
    2.5238   -5.9244    0.0000 C   0  0  0
    3.8153   -6.6590    0.0000 N   0  0  0
    1.2086   -6.6590    0.0000 C   0  0  0
    3.8035   -8.1520    0.0000 C   0  0  0
    1.1967   -8.1520    0.0000 C   0  0  0
    2.4882   -8.8866    0.0000 C   0  0  0
    5.0950   -8.8866    0.0000 C   0  0  0
    5.0831  -10.3795    0.0000 F   0  0  0
  1  2  1
  3  1  1  1  0
  2  4  2
  2  5  1
  3  6  1
  3  7  1
  4  8  1
  5  9  1
  5 10  1
  6 11  2
  6 12  1
 11 13  1
 12 14  2
 13 15  1
 13 16  2
 15 17  1
 17 18  2
 17 19  1
 19 20  2
 19 21  1
 20 22  1
 21 23  2
 22 24  2
 22 25  1
 25 26  1
  8  9  2
 14 16  1
 23 24  1
M  END
> <COMPOUND_NAMES>
Example 87 (S) (Page No: 391)

> <Reference>
WO2019148005

> <IC50_range_nM>
1001-3000

> <smiles>
C[C@@H](c1cccc(c1)NC(c1cccc(CF)n1)=O)Sc1nncn1C

$$$$
C19H19F2N5OS
  MOLSOFT 03092310482D

 28 30  0  0  1  0  0  0  0  0999 V2000
    0.0000   -0.0000    0.0000 S   0  0  0
   -1.3153    0.7584    0.0000 C   0  0  0
    1.2916    0.7584    0.0000 C   0  0  2
   -2.7017    0.1540    0.0000 N   0  0  0
   -1.4812    2.2633    0.0000 N   0  0  0
    2.5832    0.0237    0.0000 C   0  0  0
    1.2798    2.2751    0.0000 C   0  0  0
   -3.7208    1.2798    0.0000 N   0  0  0
   -2.9624    2.5832    0.0000 C   0  0  0
   -0.3792    3.2823    0.0000 C   0  0  0
    2.5714   -1.4693    0.0000 C   0  0  0
    3.8748    0.7821    0.0000 C   0  0  0
    3.8630   -2.2040    0.0000 C   0  0  0
    5.1664    0.0474    0.0000 C   0  0  0
    3.8511   -3.6971    0.0000 N   0  0  0
    5.1546   -1.4456    0.0000 C   0  0  0
    2.5358   -4.4317    0.0000 C   0  0  0
    1.2205   -3.6734    0.0000 O   0  0  0
    2.5240   -5.9248    0.0000 C   0  0  0
    3.8156   -6.6595    0.0000 N   0  0  0
    1.2087   -6.6595    0.0000 C   0  0  0
    3.8037   -8.1525    0.0000 C   0  0  0
    1.1968   -8.1525    0.0000 C   0  0  0
    2.4884   -8.8872    0.0000 C   0  0  0
    5.0953   -8.8872    0.0000 C   0  0  0
    6.3869   -9.6218    0.0000 F   0  0  0
    5.8300   -7.5719    0.0000 F   0  0  0
    4.3369  -10.1788    0.0000 C   0  0  0
  1  2  1
  3  1  1  1  0
  2  4  2
  2  5  1
  3  6  1
  3  7  1
  4  8  1
  5  9  1
  5 10  1
  6 11  2
  6 12  1
 11 13  1
 12 14  2
 13 15  1
 13 16  2
 15 17  1
 17 18  2
 17 19  1
 19 20  2
 19 21  1
 20 22  1
 21 23  2
 22 24  2
 22 25  1
 25 26  1
 25 27  1
 25 28  1
  8  9  2
 14 16  1
 23 24  1
M  END
> <COMPOUND_NAMES>
Example 81 (S) (Page No: 388)

> <Reference>
WO2019148005

> <IC50_range_nM>
101-300

> <smiles>
C[C@@H](c1cccc(c1)NC(c1cccc(C(C)(F)F)n1)=O)Sc1nncn1C

$$$$
C19H18F3N5OS
  MOLSOFT 03092310482D

 29 31  0  0  1  0  0  0  0  0999 V2000
    0.0000   -0.0000    0.0000 S   0  0  0
   -1.3155    0.7585    0.0000 C   0  0  0
    1.2918    0.7585    0.0000 C   0  0  2
   -2.7021    0.1541    0.0000 N   0  0  0
   -1.4814    2.2636    0.0000 N   0  0  0
    2.5836    0.0237    0.0000 C   0  0  0
    1.2799    2.2755    0.0000 C   0  0  0
   -3.7213    1.2799    0.0000 N   0  0  0
   -2.9628    2.5836    0.0000 C   0  0  0
   -0.3792    3.2828    0.0000 C   0  0  0
    2.5717   -1.4696    0.0000 C   0  0  0
    3.8754    0.7822    0.0000 C   0  0  0
    3.8635   -2.2043    0.0000 C   0  0  0
    5.1672    0.0474    0.0000 C   0  0  0
    3.8517   -3.6976    0.0000 N   0  0  0
    5.1553   -1.4459    0.0000 C   0  0  0
    2.5362   -4.4324    0.0000 C   0  0  0
    1.2207   -3.6739    0.0000 O   0  0  0
    2.5243   -5.9257    0.0000 C   0  0  0
    3.8161   -6.6604    0.0000 N   0  0  0
    1.2088   -6.6604    0.0000 C   0  0  0
    3.8043   -8.1537    0.0000 C   0  0  0
    1.1970   -8.1537    0.0000 C   0  0  0
    2.4888   -8.8885    0.0000 C   0  0  0
    5.0961   -8.8885    0.0000 C   0  0  0
    2.4769  -10.3818    0.0000 C   0  0  0
    4.3376  -10.1803    0.0000 F   0  0  0
    6.3879   -9.6233    0.0000 F   0  0  0
    5.8308   -7.5730    0.0000 F   0  0  0
  1  2  1
  3  1  1  1  0
  2  4  2
  2  5  1
  3  6  1
  3  7  1
  4  8  1
  5  9  1
  5 10  1
  6 11  2
  6 12  1
 11 13  1
 12 14  2
 13 15  1
 13 16  2
 15 17  1
 17 18  2
 17 19  1
 19 20  2
 19 21  1
 20 22  1
 21 23  2
 22 24  2
 22 25  1
 24 26  1
 25 27  1
 25 28  1
 25 29  1
  8  9  2
 14 16  1
 23 24  1
M  END
> <COMPOUND_NAMES>
Example 61 (S) (Page No: 379)

> <Reference>
WO2019148005

> <IC50_range_nM>
101-300

> <smiles>
Cc1ccc(C(Nc2cccc(c2)[C@H](C)Sc2nncn2C)=O)nc1C(F)(F)F

$$$$
C21H22F3N5O2S
  MOLSOFT 03092310482D

 32 34  0  0  1  0  0  0  0  0999 V2000
    0.0000   -0.0000    0.0000 S   0  0  0
   -1.3149    0.7581    0.0000 C   0  0  0
    1.2912    0.7581    0.0000 C   0  0  2
   -2.7008    0.1540    0.0000 N   0  0  0
   -1.4807    2.2625    0.0000 N   0  0  0
    2.5823    0.0237    0.0000 C   0  0  0
    1.2793    2.2743    0.0000 C   0  0  0
   -3.7195    1.2793    0.0000 N   0  0  0
   -2.9614    2.5823    0.0000 C   0  0  0
   -0.3791    3.2812    0.0000 C   0  0  0
    2.5705   -1.4688    0.0000 C   0  0  0
    3.8735    0.7818    0.0000 C   0  0  0
    3.8616   -2.2033    0.0000 C   0  0  0
    5.1647    0.0474    0.0000 C   0  0  0
    3.8498   -3.6958    0.0000 N   0  0  0
    5.1528   -1.4452    0.0000 C   0  0  0
    2.5349   -4.4302    0.0000 C   0  0  0
    1.2201   -3.6721    0.0000 O   0  0  0
    2.5231   -5.9228    0.0000 C   0  0  0
    1.2082   -6.6572    0.0000 N   0  0  0
    3.8143   -6.6572    0.0000 C   0  0  0
    1.1964   -8.1497    0.0000 C   0  0  0
    3.8024   -8.1497    0.0000 C   0  0  0
    2.4876   -8.8841    0.0000 C   0  0  0
   -0.1185   -8.8841    0.0000 C   0  0  0
    5.0936   -8.8841    0.0000 C   0  0  0
   -0.8766   -7.5693    0.0000 F   0  0  0
   -1.4333   -9.6186    0.0000 F   0  0  0
    0.6160  -10.1753    0.0000 F   0  0  0
    5.8280   -7.5693    0.0000 O   0  0  0
    4.3355  -10.1753    0.0000 C   0  0  0
    6.3847   -9.6186    0.0000 C   0  0  0
  1  2  1
  3  1  1  1  0
  2  4  2
  2  5  1
  3  6  1
  3  7  1
  4  8  1
  5  9  1
  5 10  1
  6 11  2
  6 12  1
 11 13  1
 12 14  2
 13 15  1
 13 16  2
 15 17  1
 17 18  2
 17 19  1
 19 20  2
 19 21  1
 20 22  1
 21 23  2
 22 24  2
 22 25  1
 23 26  1
 25 27  1
 25 28  1
 25 29  1
 26 30  1
 26 31  1
 26 32  1
  8  9  2
 14 16  1
 23 24  1
M  END
> <COMPOUND_NAMES>
Example 85 (S) (Page No: 390)

> <Reference>
WO2019148005

> <IC50_range_nM>
101-300

> <smiles>
C[C@@H](c1cccc(c1)NC(c1cc(cc(C(F)(F)F)n1)C(C)(C)O)=O)Sc1nncn1C

$$$$
C19H15F6N5OS
  MOLSOFT 03092310482D

 32 34  0  0  1  0  0  0  0  0999 V2000
    0.0000   -0.0000    0.0000 S   0  0  0
   -1.3149    0.7581    0.0000 C   0  0  0
    1.2912    0.7581    0.0000 C   0  0  2
   -2.7008    0.1540    0.0000 N   0  0  0
   -1.4807    2.2625    0.0000 N   0  0  0
    2.5823    0.0237    0.0000 C   0  0  0
    1.2793    2.2743    0.0000 C   0  0  0
   -3.7195    1.2793    0.0000 N   0  0  0
   -2.9614    2.5823    0.0000 C   0  0  0
   -0.3791    3.2812    0.0000 C   0  0  0
    2.5705   -1.4688    0.0000 C   0  0  0
    3.8735    0.7818    0.0000 C   0  0  0
    3.8616   -2.2033    0.0000 C   0  0  0
    5.1647    0.0474    0.0000 C   0  0  0
    3.8498   -3.6958    0.0000 N   0  0  0
    5.1528   -1.4452    0.0000 C   0  0  0
    2.5349   -4.4302    0.0000 C   0  0  0
    1.2201   -3.6721    0.0000 O   0  0  0
    2.5231   -5.9228    0.0000 C   0  0  0
    1.2082   -6.6572    0.0000 N   0  0  0
    3.8143   -6.6572    0.0000 C   0  0  0
    1.1964   -8.1497    0.0000 C   0  0  0
    3.8024   -8.1497    0.0000 C   0  0  0
    2.4876   -8.8841    0.0000 C   0  0  0
   -0.1185   -8.8841    0.0000 C   0  0  0
    5.0936   -8.8841    0.0000 C   0  0  0
   -0.8766   -7.5693    0.0000 F   0  0  0
   -1.4333   -9.6186    0.0000 F   0  0  0
    0.6160  -10.1753    0.0000 F   0  0  0
    4.3355  -10.1753    0.0000 F   0  0  0
    6.3847   -9.6186    0.0000 F   0  0  0
    5.8280   -7.5693    0.0000 F   0  0  0
  1  2  1
  3  1  1  1  0
  2  4  2
  2  5  1
  3  6  1
  3  7  1
  4  8  1
  5  9  1
  5 10  1
  6 11  2
  6 12  1
 11 13  1
 12 14  2
 13 15  1
 13 16  2
 15 17  1
 17 18  2
 17 19  1
 19 20  2
 19 21  1
 20 22  1
 21 23  2
 22 24  2
 22 25  1
 23 26  1
 25 27  1
 25 28  1
 25 29  1
 26 30  1
 26 31  1
 26 32  1
  8  9  2
 14 16  1
 23 24  1
M  END
> <COMPOUND_NAMES>
Example 64 (S) (Page No: 381)

> <Reference>
WO2019148005

> <IC50_range_nM>
301-1000

> <smiles>
C[C@@H](c1cccc(c1)NC(c1cc(cc(C(F)(F)F)n1)C(F)(F)F)=O)Sc1nncn1C

$$$$
C18H15F4N5OS
  MOLSOFT 03092310482D

 29 31  0  0  1  0  0  0  0  0999 V2000
    0.0000   -0.0000    0.0000 S   0  0  0
   -1.3157    0.7586    0.0000 C   0  0  0
    1.2920    0.7586    0.0000 C   0  0  2
   -2.7025    0.1541    0.0000 N   0  0  0
   -1.4816    2.2640    0.0000 N   0  0  0
    2.5840    0.0237    0.0000 C   0  0  0
    1.2801    2.2758    0.0000 C   0  0  0
   -3.7219    1.2801    0.0000 N   0  0  0
   -2.9633    2.5840    0.0000 C   0  0  0
   -0.3793    3.2833    0.0000 C   0  0  0
    2.5721   -1.4698    0.0000 C   0  0  0
    3.8760    0.7823    0.0000 C   0  0  0
    3.8641   -2.2047    0.0000 C   0  0  0
    5.1680    0.0474    0.0000 C   0  0  0
    3.8523   -3.6982    0.0000 N   0  0  0
    5.1561   -1.4461    0.0000 C   0  0  0
    2.5366   -4.4331    0.0000 C   0  0  0
    6.4481   -2.1810    0.0000 F   0  0  0
    1.2209   -3.6745    0.0000 O   0  0  0
    2.5247   -5.9266    0.0000 C   0  0  0
    3.8167   -6.6615    0.0000 N   0  0  0
    1.2090   -6.6615    0.0000 C   0  0  0
    3.8049   -8.1550    0.0000 C   0  0  0
    1.1972   -8.1550    0.0000 C   0  0  0
    2.4892   -8.8899    0.0000 C   0  0  0
    5.0969   -8.8899    0.0000 C   0  0  0
    4.3383  -10.1819    0.0000 F   0  0  0
    6.3888   -9.6248    0.0000 F   0  0  0
    5.8317   -7.5742    0.0000 F   0  0  0
  1  2  1
  3  1  1  1  0
  2  4  2
  2  5  1
  3  6  1
  3  7  1
  4  8  1
  5  9  1
  5 10  1
  6 11  2
  6 12  1
 11 13  1
 12 14  2
 13 15  1
 13 16  2
 15 17  1
 16 18  1
 17 19  2
 17 20  1
 20 21  2
 20 22  1
 21 23  1
 22 24  2
 23 25  2
 23 26  1
 26 27  1
 26 28  1
 26 29  1
  8  9  2
 14 16  1
 24 25  1
M  END
> <COMPOUND_NAMES>
Example 95a (S) (Page No: 395)

> <Reference>
WO2019148005

> <IC50_range_nM>
301-1000

> <smiles>
C[C@@H](c1ccc(c(c1)NC(c1cccc(C(F)(F)F)n1)=O)F)Sc1nncn1C

$$$$
C18H15F4N5OS
  MOLSOFT 03092310482D

 29 31  0  0  0  0  0  0  0  0999 V2000
    0.0000   -0.0000    0.0000 S   0  0  0
   -1.3157    0.7586    0.0000 C   0  0  0
    1.2920    0.7586    0.0000 C   0  0  3
   -2.7025    0.1541    0.0000 N   0  0  0
   -1.4816    2.2640    0.0000 N   0  0  0
    2.5840    0.0237    0.0000 C   0  0  0
    1.2801    2.2758    0.0000 C   0  0  0
   -3.7219    1.2801    0.0000 N   0  0  0
   -2.9633    2.5840    0.0000 C   0  0  0
   -0.3793    3.2833    0.0000 C   0  0  0
    2.5721   -1.4698    0.0000 C   0  0  0
    3.8760    0.7823    0.0000 C   0  0  0
    3.8641   -2.2047    0.0000 C   0  0  0
    5.1680    0.0474    0.0000 C   0  0  0
    3.8523   -3.6982    0.0000 N   0  0  0
    5.1561   -1.4461    0.0000 C   0  0  0
    2.5366   -4.4331    0.0000 C   0  0  0
    6.4481   -2.1810    0.0000 F   0  0  0
    1.2209   -3.6745    0.0000 O   0  0  0
    2.5247   -5.9266    0.0000 C   0  0  0
    3.8167   -6.6615    0.0000 N   0  0  0
    1.2090   -6.6615    0.0000 C   0  0  0
    3.8049   -8.1550    0.0000 C   0  0  0
    1.1972   -8.1550    0.0000 C   0  0  0
    2.4892   -8.8899    0.0000 C   0  0  0
    5.0969   -8.8899    0.0000 C   0  0  0
    4.3383  -10.1819    0.0000 F   0  0  0
    6.3888   -9.6248    0.0000 F   0  0  0
    5.8317   -7.5742    0.0000 F   0  0  0
  1  2  1
  3  1  1
  2  4  2
  2  5  1
  3  6  1
  3  7  1
  4  8  1
  5  9  1
  5 10  1
  6 11  2
  6 12  1
 11 13  1
 12 14  2
 13 15  1
 13 16  2
 15 17  1
 16 18  1
 17 19  2
 17 20  1
 20 21  2
 20 22  1
 21 23  1
 22 24  2
 23 25  2
 23 26  1
 26 27  1
 26 28  1
 26 29  1
  8  9  2
 14 16  1
 24 25  1
M  END
> <COMPOUND_NAMES>
Example 95 (+/-) (Page No: 394)

> <Reference>
WO2019148005

> <IC50_range_nM>
1001-3000

> <smiles>
CC(c1ccc(c(c1)NC(c1cccc(C(F)(F)F)n1)=O)F)Sc1nncn1C

$$$$
C18H15F4N5OS
  MOLSOFT 03092310482D

 29 31  0  0  1  0  0  0  0  0999 V2000
    0.0000   -0.0000    0.0000 S   0  0  0
   -1.3157    0.7586    0.0000 C   0  0  0
    1.2920    0.7586    0.0000 C   0  0  1
   -2.7025    0.1541    0.0000 N   0  0  0
   -1.4816    2.2640    0.0000 N   0  0  0
    2.5840    0.0237    0.0000 C   0  0  0
    1.2801    2.2758    0.0000 C   0  0  0
   -3.7219    1.2801    0.0000 N   0  0  0
   -2.9633    2.5840    0.0000 C   0  0  0
   -0.3793    3.2833    0.0000 C   0  0  0
    2.5721   -1.4698    0.0000 C   0  0  0
    3.8760    0.7823    0.0000 C   0  0  0
    3.8641   -2.2047    0.0000 C   0  0  0
    5.1680    0.0474    0.0000 C   0  0  0
    3.8523   -3.6982    0.0000 N   0  0  0
    5.1561   -1.4461    0.0000 C   0  0  0
    2.5366   -4.4331    0.0000 C   0  0  0
    6.4481   -2.1810    0.0000 F   0  0  0
    1.2209   -3.6745    0.0000 O   0  0  0
    2.5247   -5.9266    0.0000 C   0  0  0
    3.8167   -6.6615    0.0000 N   0  0  0
    1.2090   -6.6615    0.0000 C   0  0  0
    3.8049   -8.1550    0.0000 C   0  0  0
    1.1972   -8.1550    0.0000 C   0  0  0
    2.4892   -8.8899    0.0000 C   0  0  0
    5.0969   -8.8899    0.0000 C   0  0  0
    4.3383  -10.1819    0.0000 F   0  0  0
    6.3888   -9.6248    0.0000 F   0  0  0
    5.8317   -7.5742    0.0000 F   0  0  0
  1  2  1
  3  1  1  6  0
  2  4  2
  2  5  1
  3  6  1
  3  7  1
  4  8  1
  5  9  1
  5 10  1
  6 11  2
  6 12  1
 11 13  1
 12 14  2
 13 15  1
 13 16  2
 15 17  1
 16 18  1
 17 19  2
 17 20  1
 20 21  2
 20 22  1
 21 23  1
 22 24  2
 23 25  2
 23 26  1
 26 27  1
 26 28  1
 26 29  1
  8  9  2
 14 16  1
 24 25  1
M  END
> <COMPOUND_NAMES>
Example 95b (R) (Page No: 395)

> <Reference>
WO2019148005

> <IC50_range_nM>
3001-10000

> <smiles>
C[C@H](c1ccc(c(c1)NC(c1cccc(C(F)(F)F)n1)=O)F)Sc1nncn1C

$$$$
C18H16F3N5OS
  MOLSOFT 03092310482D

 28 30  0  0  1  0  0  0  0  0999 V2000
    0.0000   -0.0000    0.0000 S   0  0  0
   -1.3153    0.7584    0.0000 C   0  0  0
    1.2916    0.7584    0.0000 C   0  0  2
   -2.7017    0.1540    0.0000 N   0  0  0
   -1.4812    2.2633    0.0000 N   0  0  0
    2.5832    0.0237    0.0000 C   0  0  0
    1.2798    2.2751    0.0000 C   0  0  0
   -3.7208    1.2798    0.0000 N   0  0  0
   -2.9624    2.5832    0.0000 C   0  0  0
   -0.3792    3.2823    0.0000 C   0  0  0
    2.5714   -1.4693    0.0000 C   0  0  0
    3.8748    0.7821    0.0000 C   0  0  0
    3.8630   -2.2040    0.0000 C   0  0  0
    5.1664    0.0474    0.0000 C   0  0  0
    3.8511   -3.6971    0.0000 N   0  0  0
    5.1546   -1.4456    0.0000 C   0  0  0
    2.5358   -4.4317    0.0000 C   0  0  0
    1.2205   -3.6734    0.0000 O   0  0  0
    2.5240   -5.9248    0.0000 C   0  0  0
    1.2087   -6.6595    0.0000 N   0  0  0
    3.8156   -6.6595    0.0000 C   0  0  0
    1.1968   -8.1525    0.0000 C   0  0  0
    3.8037   -8.1525    0.0000 C   0  0  0
    2.4884   -8.8872    0.0000 C   0  0  0
    5.0953   -8.8872    0.0000 C   0  0  0
    4.3369  -10.1788    0.0000 F   0  0  0
    6.3869   -9.6218    0.0000 F   0  0  0
    5.8300   -7.5719    0.0000 F   0  0  0
  1  2  1
  3  1  1  1  0
  2  4  2
  2  5  1
  3  6  1
  3  7  1
  4  8  1
  5  9  1
  5 10  1
  6 11  2
  6 12  1
 11 13  1
 12 14  2
 13 15  1
 13 16  2
 15 17  1
 17 18  2
 17 19  1
 19 20  2
 19 21  1
 20 22  1
 21 23  2
 22 24  2
 23 25  1
 25 26  1
 25 27  1
 25 28  1
  8  9  2
 14 16  1
 23 24  1
M  END
> <COMPOUND_NAMES>
Example 32 (S) (Page No: 368)

> <Reference>
WO2019148005

> <IC50_range_nM>
3001-10000

> <smiles>
C[C@@H](c1cccc(c1)NC(c1cc(ccn1)C(F)(F)F)=O)Sc1nncn1C

$$$$
C19H18F3N5OS
  MOLSOFT 03092310482D

 29 31  0  0  1  0  0  0  0  0999 V2000
    0.0000   -0.0000    0.0000 S   0  0  0
   -1.3155    0.7585    0.0000 C   0  0  0
    1.2918    0.7585    0.0000 C   0  0  2
   -2.7021    0.1541    0.0000 N   0  0  0
   -1.4814    2.2636    0.0000 N   0  0  0
    2.5836    0.0237    0.0000 C   0  0  0
    1.2799    2.2755    0.0000 C   0  0  0
   -3.7213    1.2799    0.0000 N   0  0  0
   -2.9628    2.5836    0.0000 C   0  0  0
   -0.3792    3.2828    0.0000 C   0  0  0
    2.5717   -1.4696    0.0000 C   0  0  0
    3.8754    0.7822    0.0000 C   0  0  0
    3.8635   -2.2043    0.0000 C   0  0  0
    5.1672    0.0474    0.0000 C   0  0  0
    3.8517   -3.6976    0.0000 N   0  0  0
    5.1553   -1.4459    0.0000 C   0  0  0
    2.5362   -4.4324    0.0000 C   0  0  0
    1.2207   -3.6739    0.0000 O   0  0  0
    2.5243   -5.9257    0.0000 C   0  0  0
    1.2088   -6.6604    0.0000 N   0  0  0
    3.8161   -6.6604    0.0000 C   0  0  0
    1.1970   -8.1537    0.0000 C   0  0  0
    3.8043   -8.1537    0.0000 C   0  0  0
    2.4888   -8.8885    0.0000 C   0  0  0
    5.0961   -8.8885    0.0000 C   0  0  0
    2.4769  -10.3818    0.0000 C   0  0  0
    4.3376  -10.1803    0.0000 F   0  0  0
    6.3879   -9.6233    0.0000 F   0  0  0
    5.8308   -7.5730    0.0000 F   0  0  0
  1  2  1
  3  1  1  1  0
  2  4  2
  2  5  1
  3  6  1
  3  7  1
  4  8  1
  5  9  1
  5 10  1
  6 11  2
  6 12  1
 11 13  1
 12 14  2
 13 15  1
 13 16  2
 15 17  1
 17 18  2
 17 19  1
 19 20  2
 19 21  1
 20 22  1
 21 23  2
 22 24  2
 23 25  1
 24 26  1
 25 27  1
 25 28  1
 25 29  1
  8  9  2
 14 16  1
 23 24  1
M  END
> <COMPOUND_NAMES>
Example 52 (S) (Page No: 375)

> <Reference>
WO2019148005

> <IC50_range_nM>
3001-10000

> <smiles>
Cc1cnc(cc1C(F)(F)F)C(Nc1cccc(c1)[C@H](C)Sc1nncn1C)=O

$$$$
C18H15ClF3N5OS
  MOLSOFT 03092310482D

 29 31  0  0  1  0  0  0  0  0999 V2000
    0.0000   -0.0000    0.0000 Cl  0  0  0
   -0.0118    1.5069    0.0000 C   0  0  0
    1.2715    2.2604    0.0000 C   0  0  0
   -1.3186    2.2604    0.0000 C   0  0  0
    1.2597    3.7673    0.0000 N   0  0  0
    2.5547    1.5305    0.0000 C   0  0  0
   -1.3303    3.7673    0.0000 C   0  0  0
   -0.0471    4.5208    0.0000 C   0  0  0
    1.8012    0.2472    0.0000 F   0  0  0
    3.8379    0.8006    0.0000 F   0  0  0
    3.2846    2.8372    0.0000 F   0  0  0
   -0.0589    6.0277    0.0000 C   0  0  0
   -1.3656    6.7811    0.0000 O   0  0  0
    1.2244    6.7811    0.0000 N   0  0  0
    1.2126    8.2881    0.0000 C   0  0  0
   -0.0942    9.0415    0.0000 C   0  0  0
    2.4958    9.0415    0.0000 C   0  0  0
   -0.1060   10.5484    0.0000 C   0  0  0
    2.4841   10.5484    0.0000 C   0  0  0
    1.1773   11.3019    0.0000 C   0  0  0
   -1.4127   11.3019    0.0000 C   0  0  1
   -2.7195   10.5720    0.0000 S   0  0  0
   -1.4245   12.8088    0.0000 C   0  0  0
   -4.0263   11.3254    0.0000 C   0  0  0
   -5.4037   10.7250    0.0000 N   0  0  0
   -4.1911   12.8206    0.0000 N   0  0  0
   -6.4162   11.8435    0.0000 N   0  0  0
   -5.6627   13.1385    0.0000 C   0  0  0
   -3.0963   13.8331    0.0000 C   0  0  0
  1  2  1
  2  3  2
  2  4  1
  3  5  1
  3  6  1
  4  7  2
  5  8  2
  6  9  1
  6 10  1
  6 11  1
  8 12  1
 12 13  2
 12 14  1
 14 15  1
 15 16  2
 15 17  1
 16 18  1
 17 19  2
 18 20  2
 21 18  1
 21 22  1  1  0
 21 23  1
 22 24  1
 24 25  2
 24 26  1
 25 27  1
 26 28  1
 26 29  1
  7  8  1
 19 20  1
 27 28  2
M  END
> <COMPOUND_NAMES>
Example 51 (S) (Page No: 374)

> <Reference>
WO2019148005

> <IC50_range_nM>
101-300

> <smiles>
C[C@@H](c1cccc(c1)NC(c1ccc(c(C(F)(F)F)n1)[Cl])=O)Sc1nncn1C

$$$$
C18H15ClF3N5OS
  MOLSOFT 03092310482D

 29 31  0  0  1  0  0  0  0  0999 V2000
    0.0000   -0.0000    0.0000 Cl  0  0  0
   -0.0118    1.5069    0.0000 C   0  0  0
    1.2715    2.2604    0.0000 C   0  0  0
   -1.3186    2.2604    0.0000 C   0  0  0
    1.2597    3.7673    0.0000 C   0  0  0
    2.5547    1.5305    0.0000 C   0  0  0
   -1.3303    3.7673    0.0000 N   0  0  0
   -0.0471    4.5208    0.0000 C   0  0  0
    1.8012    0.2472    0.0000 F   0  0  0
    3.8379    0.8006    0.0000 F   0  0  0
    3.2846    2.8372    0.0000 F   0  0  0
   -0.0589    6.0277    0.0000 C   0  0  0
   -1.3656    6.7811    0.0000 O   0  0  0
    1.2244    6.7811    0.0000 N   0  0  0
    1.2126    8.2881    0.0000 C   0  0  0
   -0.0942    9.0415    0.0000 C   0  0  0
    2.4958    9.0415    0.0000 C   0  0  0
   -0.1060   10.5484    0.0000 C   0  0  0
    2.4841   10.5484    0.0000 C   0  0  0
    1.1773   11.3019    0.0000 C   0  0  0
   -1.4127   11.3019    0.0000 C   0  0  1
   -2.7195   10.5720    0.0000 S   0  0  0
   -1.4245   12.8088    0.0000 C   0  0  0
   -4.0263   11.3254    0.0000 C   0  0  0
   -5.4037   10.7250    0.0000 N   0  0  0
   -4.1911   12.8206    0.0000 N   0  0  0
   -6.4162   11.8435    0.0000 N   0  0  0
   -5.6627   13.1385    0.0000 C   0  0  0
   -3.0963   13.8331    0.0000 C   0  0  0
  1  2  1
  2  3  2
  2  4  1
  3  5  1
  3  6  1
  4  7  2
  5  8  2
  6  9  1
  6 10  1
  6 11  1
  8 12  1
 12 13  2
 12 14  1
 14 15  1
 15 16  2
 15 17  1
 16 18  1
 17 19  2
 18 20  2
 21 18  1
 21 22  1  1  0
 21 23  1
 22 24  1
 24 25  2
 24 26  1
 25 27  1
 26 28  1
 26 29  1
  7  8  1
 19 20  1
 27 28  2
M  END
> <COMPOUND_NAMES>
Example 40 (S) (Page No: 371)

> <Reference>
WO2019148005

> <IC50_range_nM>
1001-3000

> <smiles>
C[C@@H](c1cccc(c1)NC(c1cc(c(cn1)[Cl])C(F)(F)F)=O)Sc1nncn1C

$$$$
C18H15ClF3N5OS
  MOLSOFT 03092310482D

 29 31  0  0  1  0  0  0  0  0999 V2000
    0.0000   -0.0000    0.0000 Cl  0  0  0
   -1.3051    0.7525    0.0000 C   0  0  0
   -1.3169    2.2575    0.0000 C   0  0  0
   -2.6102    0.0235    0.0000 C   0  0  0
   -2.6220    3.0100    0.0000 C   0  0  0
   -3.9153    0.7760    0.0000 C   0  0  0
   -3.9271    2.2810    0.0000 N   0  0  0
   -2.6337    4.5150    0.0000 C   0  0  0
   -5.2204    0.0470    0.0000 C   0  0  0
   -3.9388    5.2674    0.0000 O   0  0  0
   -1.3521    5.2674    0.0000 N   0  0  0
   -5.9729    1.3521    0.0000 F   0  0  0
   -6.5255   -0.6819    0.0000 F   0  0  0
   -4.4914   -1.2346    0.0000 F   0  0  0
   -1.3639    6.7724    0.0000 C   0  0  0
   -2.6690    7.5249    0.0000 C   0  0  0
   -0.0823    7.5249    0.0000 C   0  0  0
   -2.6808    9.0299    0.0000 C   0  0  0
   -0.0941    9.0299    0.0000 C   0  0  0
   -1.3992    9.7824    0.0000 C   0  0  0
   -3.9859    9.7824    0.0000 C   0  0  1
   -5.2910    9.0534    0.0000 S   0  0  0
   -3.9976   11.2874    0.0000 C   0  0  0
   -6.5961    9.8059    0.0000 C   0  0  0
   -7.9717    9.2063    0.0000 N   0  0  0
   -6.7607   11.2991    0.0000 N   0  0  0
   -8.9829   10.3233    0.0000 N   0  0  0
   -8.2304   11.6166    0.0000 C   0  0  0
   -5.6672   12.3103    0.0000 C   0  0  0
  1  2  1
  2  3  2
  2  4  1
  3  5  1
  4  6  2
  5  7  2
  5  8  1
  6  9  1
  8 10  2
  8 11  1
  9 12  1
  9 13  1
  9 14  1
 11 15  1
 15 16  2
 15 17  1
 16 18  1
 17 19  2
 18 20  2
 21 18  1
 21 22  1  1  0
 21 23  1
 22 24  1
 24 25  2
 24 26  1
 25 27  1
 26 28  1
 26 29  1
  6  7  1
 19 20  1
 27 28  2
M  END
> <COMPOUND_NAMES>
Example 68 (S) (Page No: 383)

> <Reference>
WO2019148005

> <IC50_range_nM>
101-300

> <smiles>
C[C@@H](c1cccc(c1)NC(c1cc(cc(C(F)(F)F)n1)[Cl])=O)Sc1nncn1C

$$$$
C18H17F3N6OS
  MOLSOFT 03092310482D

 29 31  0  0  1  0  0  0  0  0999 V2000
    0.0000   -0.0000    0.0000 S   0  0  0
   -1.3148    0.7581    0.0000 C   0  0  0
    1.2911    0.7581    0.0000 C   0  0  2
   -2.7006    0.1540    0.0000 N   0  0  0
   -1.4806    2.2624    0.0000 N   0  0  0
    2.5822    0.0237    0.0000 C   0  0  0
    1.2792    2.2742    0.0000 C   0  0  0
   -3.7193    1.2792    0.0000 N   0  0  0
   -2.9612    2.5822    0.0000 C   0  0  0
   -0.3790    3.2810    0.0000 C   0  0  0
    2.5703   -1.4688    0.0000 C   0  0  0
    3.8733    0.7818    0.0000 C   0  0  0
    3.8614   -2.2032    0.0000 C   0  0  0
    5.1644    0.0474    0.0000 C   0  0  0
    3.8496   -3.6956    0.0000 N   0  0  0
    5.1525   -1.4451    0.0000 C   0  0  0
    2.5348   -4.4300    0.0000 C   0  0  0
    1.2200   -3.6719    0.0000 O   0  0  0
    2.5230   -5.9225    0.0000 C   0  0  0
    3.8141   -6.6568    0.0000 N   0  0  0
    1.2082   -6.6568    0.0000 C   0  0  0
    3.8022   -8.1493    0.0000 C   0  0  0
   -0.1066   -5.8988    0.0000 N   0  0  0
    1.1963   -8.1493    0.0000 C   0  0  0
    2.4874   -8.8837    0.0000 C   0  0  0
    5.0933   -8.8837    0.0000 C   0  0  0
    4.3352  -10.1748    0.0000 F   0  0  0
    6.3844   -9.6181    0.0000 F   0  0  0
    5.8277   -7.5689    0.0000 F   0  0  0
  1  2  1
  3  1  1  1  0
  2  4  2
  2  5  1
  3  6  1
  3  7  1
  4  8  1
  5  9  1
  5 10  1
  6 11  2
  6 12  1
 11 13  1
 12 14  2
 13 15  1
 13 16  2
 15 17  1
 17 18  2
 17 19  1
 19 20  2
 19 21  1
 20 22  1
 21 23  1
 21 24  2
 22 25  2
 22 26  1
 26 27  1
 26 28  1
 26 29  1
  8  9  2
 14 16  1
 24 25  1
M  END
> <COMPOUND_NAMES>
Example 49 (S) (Page No: 374)

> <Reference>
WO2019148005

> <IC50_range_nM>
1001-3000

> <smiles>
C[C@@H](c1cccc(c1)NC(c1c(ccc(C(F)(F)F)n1)N)=O)Sc1nncn1C

$$$$
C19H18F3N5O2S
  MOLSOFT 03092310482D

 30 32  0  0  0  0  0  0  0  0999 V2000
    0.0000   -0.0000    0.0000 S   0  0  0
   -1.3135    0.7573    0.0000 C   0  0  0
    1.2898    0.7573    0.0000 C   0  0  3
   -1.4791    2.2601    0.0000 N   0  0  0
   -2.6979    0.1538    0.0000 N   0  0  0
    2.5796    0.0237    0.0000 C   0  0  0
    1.2780    2.2719    0.0000 C   0  0  0
   -2.9582    2.5796    0.0000 N   0  0  0
   -3.7155    1.2780    0.0000 C   0  0  0
   -3.0174   -1.3016    0.0000 C   0  0  0
    2.5677   -1.4673    0.0000 C   0  0  0
    3.8694    0.7810    0.0000 C   0  0  0
   -0.0355    3.0292    0.0000 C   0  0  0
    3.8575   -2.2009    0.0000 C   0  0  0
    5.1592    0.0473    0.0000 C   0  0  0
   -0.0473    4.5438    0.0000 O   0  0  0
    3.8457   -3.6919    0.0000 N   0  0  0
    5.1473   -1.4436    0.0000 C   0  0  0
    2.5322   -4.4255    0.0000 C   0  0  0
    1.2188   -3.6682    0.0000 O   0  0  0
    2.5204   -5.9165    0.0000 C   0  0  0
    1.2070   -6.6501    0.0000 N   0  0  0
    3.8102   -6.6501    0.0000 C   0  0  0
    1.1951   -8.1411    0.0000 C   0  0  0
    3.7984   -8.1411    0.0000 C   0  0  0
    2.4849   -8.8747    0.0000 C   0  0  0
   -0.1183   -8.8747    0.0000 C   0  0  0
   -0.8756   -7.5612    0.0000 F   0  0  0
   -1.4318   -9.6083    0.0000 F   0  0  0
    0.6153  -10.1645    0.0000 F   0  0  0
  1  2  1
  3  1  1
  2  4  2
  2  5  1
  3  6  1
  3  7  1
  4  8  1
  5  9  1
  5 10  1
  6 11  2
  6 12  1
  7 13  1
 11 14  1
 12 15  2
 13 16  1
 14 17  1
 14 18  2
 17 19  1
 19 20  2
 19 21  1
 21 22  2
 21 23  1
 22 24  1
 23 25  2
 24 26  2
 24 27  1
 27 28  1
 27 29  1
 27 30  1
  8  9  2
 15 18  1
 25 26  1
M  END
> <COMPOUND_NAMES>
Example 181 (+/-) (Page No: 432)

> <Reference>
WO2019148005

> <IC50_range_nM>
1001-3000

> <smiles>
Cn1cnnc1SC(CCO)c1cccc(c1)NC(c1cccc(C(F)(F)F)n1)=O

$$$$
C17H15F3N6OS
  MOLSOFT 03092310482D

 28 30  0  0  0  0  0  0  0  0999 V2000
    0.0000   -0.0000    0.0000 S   0  0  0
   -1.3153    0.7584    0.0000 C   0  0  0
    1.2916    0.7584    0.0000 C   0  0  3
   -2.7017    0.1540    0.0000 N   0  0  0
   -1.4812    2.2633    0.0000 N   0  0  0
    2.5832    0.0237    0.0000 C   0  0  0
    1.2798    2.2751    0.0000 C   0  0  0
   -3.7208    1.2798    0.0000 N   0  0  0
   -2.9624    2.5832    0.0000 C   0  0  0
   -0.3792    3.2823    0.0000 C   0  0  0
    3.8748    0.7821    0.0000 C   0  0  0
    2.5714   -1.4693    0.0000 C   0  0  0
    5.1664    0.0474    0.0000 N   0  0  0
    3.8630   -2.2040    0.0000 C   0  0  0
    5.1546   -1.4456    0.0000 C   0  0  0
    3.8511   -3.6971    0.0000 N   0  0  0
    2.5358   -4.4317    0.0000 C   0  0  0
    1.2205   -3.6734    0.0000 O   0  0  0
    2.5240   -5.9248    0.0000 C   0  0  0
    3.8156   -6.6595    0.0000 N   0  0  0
    1.2087   -6.6595    0.0000 C   0  0  0
    3.8037   -8.1525    0.0000 C   0  0  0
    1.1968   -8.1525    0.0000 C   0  0  0
    2.4884   -8.8872    0.0000 C   0  0  0
    5.0953   -8.8872    0.0000 C   0  0  0
    4.3369  -10.1788    0.0000 F   0  0  0
    6.3869   -9.6218    0.0000 F   0  0  0
    5.8300   -7.5719    0.0000 F   0  0  0
  1  2  1
  3  1  1
  2  4  2
  2  5  1
  3  6  1
  3  7  1
  4  8  1
  5  9  1
  5 10  1
  6 11  2
  6 12  1
 11 13  1
 12 14  2
 13 15  2
 14 16  1
 16 17  1
 17 18  2
 17 19  1
 19 20  2
 19 21  1
 20 22  1
 21 23  2
 22 24  2
 22 25  1
 25 26  1
 25 27  1
 25 28  1
  8  9  2
 14 15  1
 23 24  1
M  END
> <COMPOUND_NAMES>
Example 127 (+/-) (Page No: 408)

> <Reference>
WO2019148005

> <IC50_range_nM>
3001-10000

> <smiles>
CC(c1cc(cnc1)NC(c1cccc(C(F)(F)F)n1)=O)Sc1nncn1C

$$$$
C19H18F3N5O2S
  MOLSOFT 03092310482D

 30 32  0  0  1  0  0  0  0  0999 V2000
    0.0000   -0.0000    0.0000 S   0  0  0
    1.2849    0.7544    0.0000 C   0  0  0
   -1.3085    0.7544    0.0000 C   0  0  2
    1.4263    2.2515    0.0000 N   0  0  0
    2.6405    0.1532    0.0000 N   0  0  0
   -2.6169    0.0118    0.0000 C   0  0  0
   -1.3202    2.2633    0.0000 C   0  0  0
    2.8763    2.5698    0.0000 N   0  0  0
    3.6307    1.2731    0.0000 C   0  0  0
    2.9352   -1.2967    0.0000 C   0  0  0
   -3.9254    0.7662    0.0000 C   0  0  0
   -2.6287   -1.4735    0.0000 C   0  0  0
   -5.2338    0.0236    0.0000 C   0  0  0
   -3.9372   -2.2043    0.0000 C   0  0  0
   -6.5423    0.7780    0.0000 N   0  0  0
   -5.2456   -1.4617    0.0000 C   0  0  0
   -6.5541    2.2869    0.0000 C   0  0  0
   -5.2692    3.0413    0.0000 O   0  0  0
   -7.8625    3.0413    0.0000 C   0  0  0
   -7.8743    4.5501    0.0000 N   0  0  0
   -9.1710    2.3104    0.0000 C   0  0  0
   -9.1828    5.3046    0.0000 C   0  0  0
  -10.4795    3.0649    0.0000 C   0  0  0
  -10.4912    4.5737    0.0000 C   0  0  0
   -9.1946    6.8134    0.0000 C   0  0  0
  -11.7879    2.3340    0.0000 O   0  0  0
   -9.2064    8.3223    0.0000 F   0  0  0
   -7.7093    6.8252    0.0000 F   0  0  0
  -10.7034    6.8252    0.0000 F   0  0  0
  -11.7997    0.8487    0.0000 C   0  0  0
  1  2  1
  3  1  1  6  0
  2  4  2
  2  5  1
  3  6  1
  3  7  1
  4  8  1
  5  9  1
  5 10  1
  6 11  2
  6 12  1
 11 13  1
 12 14  2
 13 15  1
 13 16  2
 15 17  1
 17 18  2
 17 19  1
 19 20  2
 19 21  1
 20 22  1
 21 23  2
 22 24  2
 22 25  1
 23 26  1
 25 27  1
 25 28  1
 25 29  1
 26 30  1
  8  9  2
 14 16  1
 23 24  1
M  END
> <COMPOUND_NAMES>
Example 71 (S) (Page No: 384)

> <Reference>
WO2019148005

> <IC50_range_nM>
101-300

> <smiles>
C[C@@H](c1cccc(c1)NC(c1cc(cc(C(F)(F)F)n1)OC)=O)Sc1nncn1C

$$$$
C21H20F3N5O3S
  MOLSOFT 03092310482D

 33 36  0  0  1  0  0  0  0  0999 V2000
    0.0000   -0.0000    0.0000 S   0  0  0
   -1.3147    0.7580    0.0000 C   0  0  0
    1.2910    0.7580    0.0000 C   0  0  2
   -2.7005    0.1540    0.0000 N   0  0  0
   -1.4805    2.2623    0.0000 N   0  0  0
    2.5820    0.0237    0.0000 C   0  0  0
    1.2792    2.2741    0.0000 C   0  0  0
   -3.7191    1.2792    0.0000 N   0  0  0
   -2.9611    2.5820    0.0000 C   0  0  0
   -0.3790    3.2809    0.0000 C   0  0  0
    2.5702   -1.4687    0.0000 C   0  0  0
    3.8731    0.7817    0.0000 C   0  0  0
    3.8612   -2.2030    0.0000 C   0  0  0
    5.1641    0.0474    0.0000 C   0  0  0
    3.8494   -3.6954    0.0000 N   0  0  0
    5.1522   -1.4450    0.0000 C   0  0  0
    2.5347   -4.4298    0.0000 C   0  0  0
    1.2200   -3.6717    0.0000 O   0  0  0
    2.5228   -5.9221    0.0000 C   0  0  0
    1.2081   -6.6565    0.0000 N   0  0  0
    3.8138   -6.6565    0.0000 C   0  0  0
    1.1963   -8.1488    0.0000 C   0  0  0
    3.8020   -8.1488    0.0000 C   0  0  0
    2.4873   -8.8832    0.0000 C   0  0  0
   -0.1184   -8.8832    0.0000 C   0  0  0
    5.0930   -8.8832    0.0000 C   0  0  0
   -0.8765   -7.5685    0.0000 F   0  0  0
   -1.4332   -9.6175    0.0000 F   0  0  0
    0.6159  -10.1742    0.0000 F   0  0  0
    3.7783   -9.6175    0.0000 O   0  0  0
    6.5380   -8.4805    0.0000 C   0  0  0
    5.4720  -10.3282    0.0000 C   0  0  0
    6.9170   -9.9255    0.0000 O   0  0  0
  1  2  1
  3  1  1  1  0
  2  4  2
  2  5  1
  3  6  1
  3  7  1
  4  8  1
  5  9  1
  5 10  1
  6 11  2
  6 12  1
 11 13  1
 12 14  2
 13 15  1
 13 16  2
 15 17  1
 17 18  2
 17 19  1
 19 20  2
 19 21  1
 20 22  1
 21 23  2
 22 24  2
 22 25  1
 23 26  1
 25 27  1
 25 28  1
 25 29  1
 26 30  1
 26 31  1
 26 32  1
 31 33  1
  8  9  2
 14 16  1
 23 24  1
 32 33  1
M  END
> <COMPOUND_NAMES>
Example 84 (S) (Page No: 389)

> <Reference>
WO2019148005

> <IC50_range_nM>
301-1000

> <smiles>
C[C@@H](c1cccc(c1)NC(c1cc(cc(C(F)(F)F)n1)C1(COC1)O)=O)Sc1nncn1C

$$$$
C20H21N5OS
  MOLSOFT 03092310482D

 27 30  0  0  1  0  0  0  0  0999 V2000
    0.0000   -0.0000    0.0000 S   0  0  0
   -1.3154    0.7584    0.0000 C   0  0  0
    1.2917    0.7584    0.0000 C   0  0  2
   -2.7019    0.1541    0.0000 N   0  0  0
   -1.4813    2.2634    0.0000 N   0  0  0
    2.5834    0.0237    0.0000 C   0  0  0
    1.2798    2.2753    0.0000 C   0  0  0
   -3.7210    1.2798    0.0000 N   0  0  0
   -2.9626    2.5834    0.0000 C   0  0  0
   -0.3792    3.2826    0.0000 C   0  0  0
    2.5715   -1.4695    0.0000 C   0  0  0
    3.8751    0.7821    0.0000 C   0  0  0
    3.8632   -2.2042    0.0000 C   0  0  0
    5.1668    0.0474    0.0000 C   0  0  0
    3.8514   -3.6973    0.0000 N   0  0  0
    5.1549   -1.4458    0.0000 C   0  0  0
    2.5360   -4.4321    0.0000 C   0  0  0
    1.2206   -3.6736    0.0000 O   0  0  0
    2.5241   -5.9252    0.0000 C   0  0  0
    3.8158   -6.6599    0.0000 N   0  0  0
    1.2087   -6.6599    0.0000 C   0  0  0
    3.8040   -8.1531    0.0000 C   0  0  0
    1.1969   -8.1531    0.0000 C   0  0  0
    2.4886   -8.8878    0.0000 C   0  0  0
    5.0957   -8.8878    0.0000 C   0  0  0
    6.5888   -8.8760    0.0000 C   0  0  0
    5.8304  -10.1795    0.0000 C   0  0  0
  1  2  1
  3  1  1  1  0
  2  4  2
  2  5  1
  3  6  1
  3  7  1
  4  8  1
  5  9  1
  5 10  1
  6 11  2
  6 12  1
 11 13  1
 12 14  2
 13 15  1
 13 16  2
 15 17  1
 17 18  2
 17 19  1
 19 20  2
 19 21  1
 20 22  1
 21 23  2
 22 24  2
 22 25  1
 25 26  1
 25 27  1
  8  9  2
 14 16  1
 23 24  1
 26 27  1
M  END
> <COMPOUND_NAMES>
Example 72 (S) (Page No: 385)

> <Reference>
WO2019148005

> <IC50_range_nM>
<100

> <smiles>
C[C@@H](c1cccc(c1)NC(c1cccc(C2CC2)n1)=O)Sc1nncn1C

$$$$
C21H23N5OS
  MOLSOFT 03092310482D

 28 31  0  0  1  0  0  0  0  0999 V2000
    0.0000   -0.0000    0.0000 S   0  0  0
   -1.3156    0.7585    0.0000 C   0  0  0
    1.2919    0.7585    0.0000 C   0  0  2
   -2.7023    0.1541    0.0000 N   0  0  0
   -1.4815    2.2638    0.0000 N   0  0  0
    2.5838    0.0237    0.0000 C   0  0  0
    1.2800    2.2756    0.0000 C   0  0  0
   -3.7216    1.2800    0.0000 N   0  0  0
   -2.9630    2.5838    0.0000 C   0  0  0
   -0.3793    3.2830    0.0000 C   0  0  0
    2.5719   -1.4697    0.0000 C   0  0  0
    3.8757    0.7822    0.0000 C   0  0  0
    3.8638   -2.2045    0.0000 C   0  0  0
    5.1675    0.0474    0.0000 C   0  0  0
    3.8519   -3.6979    0.0000 N   0  0  0
    5.1557   -1.4460    0.0000 C   0  0  0
    2.5364   -4.4327    0.0000 C   0  0  0
    1.2208   -3.6742    0.0000 O   0  0  0
    2.5245   -5.9261    0.0000 C   0  0  0
    3.8164   -6.6609    0.0000 N   0  0  0
    1.2089   -6.6609    0.0000 C   0  0  0
    3.8045   -8.1543    0.0000 C   0  0  0
    1.1971   -8.1543    0.0000 C   0  0  0
    2.4890   -8.8891    0.0000 C   0  0  0
    5.0964   -8.8891    0.0000 C   0  0  0
    2.4771  -10.3825    0.0000 C   0  0  0
    6.5898   -8.8773    0.0000 C   0  0  0
    5.8313  -10.1810    0.0000 C   0  0  0
  1  2  1
  3  1  1  1  0
  2  4  2
  2  5  1
  3  6  1
  3  7  1
  4  8  1
  5  9  1
  5 10  1
  6 11  2
  6 12  1
 11 13  1
 12 14  2
 13 15  1
 13 16  2
 15 17  1
 17 18  2
 17 19  1
 19 20  2
 19 21  1
 20 22  1
 21 23  2
 22 24  2
 22 25  1
 24 26  1
 25 27  1
 25 28  1
  8  9  2
 14 16  1
 23 24  1
 27 28  1
M  END
> <COMPOUND_NAMES>
Example 54 (S) (Page No: 375)

> <Reference>
WO2019148005

> <IC50_range_nM>
<100

> <smiles>
Cc1ccc(C(Nc2cccc(c2)[C@H](C)Sc2nncn2C)=O)nc1C1CC1

$$$$
C21H23N5OS
  MOLSOFT 03092310482D

 28 31  0  0  1  0  0  0  0  0999 V2000
    0.0000   -0.0000    0.0000 S   0  0  0
   -1.3156    0.7585    0.0000 C   0  0  0
    1.2919    0.7585    0.0000 C   0  0  2
   -2.7023    0.1541    0.0000 N   0  0  0
   -1.4815    2.2638    0.0000 N   0  0  0
    2.5838    0.0237    0.0000 C   0  0  0
    1.2800    2.2756    0.0000 C   0  0  0
   -3.7216    1.2800    0.0000 N   0  0  0
   -2.9630    2.5838    0.0000 C   0  0  0
   -0.3793    3.2830    0.0000 C   0  0  0
    2.5719   -1.4697    0.0000 C   0  0  0
    3.8757    0.7822    0.0000 C   0  0  0
    3.8638   -2.2045    0.0000 C   0  0  0
    5.1675    0.0474    0.0000 C   0  0  0
    3.8519   -3.6979    0.0000 N   0  0  0
    5.1557   -1.4460    0.0000 C   0  0  0
    2.5364   -4.4327    0.0000 C   0  0  0
    1.2208   -3.6742    0.0000 O   0  0  0
    2.5245   -5.9261    0.0000 C   0  0  0
    1.2089   -6.6609    0.0000 N   0  0  0
    3.8164   -6.6609    0.0000 C   0  0  0
    1.1971   -8.1543    0.0000 C   0  0  0
    3.8045   -8.1543    0.0000 C   0  0  0
    2.4890   -8.8891    0.0000 C   0  0  0
    5.0964   -8.8891    0.0000 C   0  0  0
    2.4771  -10.3825    0.0000 C   0  0  0
    6.5898   -8.8773    0.0000 C   0  0  0
    5.8313  -10.1810    0.0000 C   0  0  0
  1  2  1
  3  1  1  1  0
  2  4  2
  2  5  1
  3  6  1
  3  7  1
  4  8  1
  5  9  1
  5 10  1
  6 11  2
  6 12  1
 11 13  1
 12 14  2
 13 15  1
 13 16  2
 15 17  1
 17 18  2
 17 19  1
 19 20  2
 19 21  1
 20 22  1
 21 23  2
 22 24  2
 23 25  1
 24 26  1
 25 27  1
 25 28  1
  8  9  2
 14 16  1
 23 24  1
 27 28  1
M  END
> <COMPOUND_NAMES>
Example 53 (S) (Page No: 375)

> <Reference>
WO2019148005

> <IC50_range_nM>
3001-10000

> <smiles>
Cc1cnc(cc1C1CC1)C(Nc1cccc(c1)[C@H](C)Sc1nncn1C)=O

$$$$
C21H23N5O2S
  MOLSOFT 03092310482D

 29 32  0  0  1  0  0  0  0  0999 V2000
    0.0000   -0.0000    0.0000 S   0  0  0
   -1.3141    0.7695    0.0000 C   0  0  0
    1.2904    0.7695    0.0000 C   0  0  2
   -2.6992    0.1657    0.0000 N   0  0  0
   -1.4798    2.2730    0.0000 N   0  0  0
    2.5808    0.0237    0.0000 C   0  0  0
    1.2786    2.2849    0.0000 C   0  0  0
   -3.7174    1.2904    0.0000 N   0  0  0
   -2.9597    2.5927    0.0000 C   0  0  0
   -0.3788    3.2912    0.0000 C   0  0  0
    2.5690   -1.4680    0.0000 C   0  0  0
    3.8713    0.7932    0.0000 C   0  0  0
    3.8594   -2.2020    0.0000 C   0  0  0
    5.1617    0.0474    0.0000 C   0  0  0
    3.8476   -3.6937    0.0000 N   0  0  0
    5.1499   -1.4443    0.0000 C   0  0  0
    2.5335   -4.4277    0.0000 C   0  0  0
    1.2194   -3.6700    0.0000 O   0  0  0
    2.5217   -5.9194    0.0000 C   0  0  0
    3.8121   -6.6534    0.0000 N   0  0  0
    1.2076   -6.6534    0.0000 C   0  0  0
    3.8002   -8.1451    0.0000 C   0  0  0
    1.1957   -8.1451    0.0000 C   0  0  0
    2.4861   -8.8909    0.0000 C   0  0  0
    5.0907   -8.8909    0.0000 C   0  0  0
    2.4743  -10.3826    0.0000 C   0  0  0
    6.5823   -8.8791    0.0000 C   0  0  0
    5.8247  -10.1813    0.0000 C   0  0  0
    1.1602  -11.1166    0.0000 O   0  0  0
  1  2  1
  3  1  1  1  0
  2  4  2
  2  5  1
  3  6  1
  3  7  1
  4  8  1
  5  9  1
  5 10  1
  6 11  2
  6 12  1
 11 13  1
 12 14  2
 13 15  1
 13 16  2
 15 17  1
 17 18  2
 17 19  1
 19 20  2
 19 21  1
 20 22  1
 21 23  2
 22 24  2
 22 25  1
 24 26  1
 25 27  1
 25 28  1
 26 29  1
  8  9  2
 14 16  1
 23 24  1
 27 28  1
M  END
> <COMPOUND_NAMES>
Example 89 (S) (Page No: 392)

> <Reference>
WO2019148005

> <IC50_range_nM>
<100

> <smiles>
C[C@@H](c1cccc(c1)NC(c1ccc(CO)c(C2CC2)n1)=O)Sc1nncn1C

$$$$
C21H20N6OS
  MOLSOFT 03092310482D

 29 32  0  0  1  0  0  0  0  0999 V2000
    0.0000   -0.0000    0.0000 S   0  0  0
   -1.3153    0.7584    0.0000 C   0  0  0
    1.2916    0.7584    0.0000 C   0  0  2
   -2.7017    0.1540    0.0000 N   0  0  0
   -1.4812    2.2632    0.0000 N   0  0  0
    2.5832    0.0237    0.0000 C   0  0  0
    1.2797    2.2751    0.0000 C   0  0  0
   -3.7207    1.2797    0.0000 N   0  0  0
   -2.9624    2.5832    0.0000 C   0  0  0
   -0.3792    3.2823    0.0000 C   0  0  0
    2.5713   -1.4693    0.0000 C   0  0  0
    3.8748    0.7821    0.0000 C   0  0  0
    3.8629   -2.2040    0.0000 C   0  0  0
    5.1664    0.0474    0.0000 C   0  0  0
    3.8511   -3.6970    0.0000 N   0  0  0
    5.1545   -1.4456    0.0000 C   0  0  0
    2.5358   -4.4435    0.0000 C   0  0  0
    1.2205   -3.6852    0.0000 O   0  0  0
    2.5239   -5.9366    0.0000 C   0  0  0
    3.8155   -6.6831    0.0000 N   0  0  0
    1.2086   -6.6831    0.0000 C   0  0  0
    3.8037   -8.1761    0.0000 C   0  0  0
    1.1968   -8.1761    0.0000 C   0  0  0
    2.4884   -8.9108    0.0000 C   0  0  0
    5.0953   -8.9108    0.0000 C   0  0  0
    2.4765  -10.4038    0.0000 C   0  0  0
    6.5883   -8.8989    0.0000 C   0  0  0
    5.8299  -10.2024    0.0000 C   0  0  0
    2.4647  -11.8968    0.0000 N   0  0  0
  1  2  1
  3  1  1  1  0
  2  4  2
  2  5  1
  3  6  1
  3  7  1
  4  8  1
  5  9  1
  5 10  1
  6 11  2
  6 12  1
 11 13  1
 12 14  2
 13 15  1
 13 16  2
 15 17  1
 17 18  2
 17 19  1
 19 20  2
 19 21  1
 20 22  1
 21 23  2
 22 24  2
 22 25  1
 24 26  1
 25 27  1
 25 28  1
 26 29  3
  8  9  2
 14 16  1
 23 24  1
 27 28  1
M  END
> <COMPOUND_NAMES>
Example 92 (S) (Page No: 393)

> <Reference>
WO2019148005

> <IC50_range_nM>
<100

> <smiles>
C[C@@H](c1cccc(c1)NC(c1ccc(C#N)c(C2CC2)n1)=O)Sc1nncn1C

$$$$
C20H20FN5OS
  MOLSOFT 03092310482D

 28 31  0  0  1  0  0  0  0  0999 V2000
    0.0000   -0.0000    0.0000 S   0  0  0
   -1.3156    0.7585    0.0000 C   0  0  0
    1.2919    0.7585    0.0000 C   0  0  2
   -2.7023    0.1541    0.0000 N   0  0  0
   -1.4815    2.2638    0.0000 N   0  0  0
    2.5838    0.0237    0.0000 C   0  0  0
    1.2800    2.2756    0.0000 C   0  0  0
   -3.7216    1.2800    0.0000 N   0  0  0
   -2.9630    2.5838    0.0000 C   0  0  0
   -0.3793    3.2830    0.0000 C   0  0  0
    2.5719   -1.4697    0.0000 C   0  0  0
    3.8757    0.7822    0.0000 C   0  0  0
    3.8638   -2.2045    0.0000 C   0  0  0
    5.1675    0.0474    0.0000 C   0  0  0
    3.8519   -3.6979    0.0000 N   0  0  0
    5.1557   -1.4460    0.0000 C   0  0  0
    2.5364   -4.4327    0.0000 C   0  0  0
    1.2208   -3.6742    0.0000 O   0  0  0
    2.5245   -5.9261    0.0000 C   0  0  0
    3.8164   -6.6609    0.0000 N   0  0  0
    1.2089   -6.6609    0.0000 C   0  0  0
    3.8045   -8.1543    0.0000 C   0  0  0
    1.1971   -8.1543    0.0000 C   0  0  0
    2.4890   -8.8891    0.0000 C   0  0  0
    5.0964   -8.8891    0.0000 C   0  0  0
    2.4771  -10.3825    0.0000 F   0  0  0
    6.5898   -8.8773    0.0000 C   0  0  0
    5.8313  -10.1810    0.0000 C   0  0  0
  1  2  1
  3  1  1  1  0
  2  4  2
  2  5  1
  3  6  1
  3  7  1
  4  8  1
  5  9  1
  5 10  1
  6 11  2
  6 12  1
 11 13  1
 12 14  2
 13 15  1
 13 16  2
 15 17  1
 17 18  2
 17 19  1
 19 20  2
 19 21  1
 20 22  1
 21 23  2
 22 24  2
 22 25  1
 24 26  1
 25 27  1
 25 28  1
  8  9  2
 14 16  1
 23 24  1
 27 28  1
M  END
> <COMPOUND_NAMES>
Example 91 (S) (Page No: 393)

> <Reference>
WO2019148005

> <IC50_range_nM>
<100

> <smiles>
C[C@@H](c1cccc(c1)NC(c1ccc(c(C2CC2)n1)F)=O)Sc1nncn1C

$$$$
C21H20F3N5OS
  MOLSOFT 03092310482D

 31 34  0  0  1  0  0  0  0  0999 V2000
    0.0000   -0.0000    0.0000 S   0  0  0
   -1.3149    0.7582    0.0000 C   0  0  0
    1.2912    0.7582    0.0000 C   0  0  2
   -2.7010    0.1540    0.0000 N   0  0  0
   -1.4808    2.2626    0.0000 N   0  0  0
    2.5825    0.0237    0.0000 C   0  0  0
    1.2794    2.2745    0.0000 C   0  0  0
   -3.7197    1.2794    0.0000 N   0  0  0
   -2.9616    2.5825    0.0000 C   0  0  0
   -0.3791    3.2814    0.0000 C   0  0  0
    2.5706   -1.4689    0.0000 C   0  0  0
    3.8737    0.7819    0.0000 C   0  0  0
    3.8619   -2.2034    0.0000 C   0  0  0
    5.1650    0.0474    0.0000 C   0  0  0
    3.8500   -3.6960    0.0000 N   0  0  0
    5.1531   -1.4452    0.0000 C   0  0  0
    2.5351   -4.4305    0.0000 C   0  0  0
    1.2202   -3.6723    0.0000 O   0  0  0
    2.5233   -5.9231    0.0000 C   0  0  0
    1.2083   -6.6576    0.0000 N   0  0  0
    3.8145   -6.6576    0.0000 C   0  0  0
    1.1965   -8.1502    0.0000 C   0  0  0
    3.8027   -8.1502    0.0000 C   0  0  0
    2.4877   -8.8847    0.0000 C   0  0  0
   -0.1185   -8.8847    0.0000 C   0  0  0
    5.0939   -8.8847    0.0000 C   0  0  0
   -0.8766   -7.5698    0.0000 F   0  0  0
   -1.4334   -9.6192    0.0000 F   0  0  0
    0.6160  -10.1760    0.0000 F   0  0  0
    6.5865   -8.8729    0.0000 C   0  0  0
    5.8284  -10.1760    0.0000 C   0  0  0
  1  2  1
  3  1  1  1  0
  2  4  2
  2  5  1
  3  6  1
  3  7  1
  4  8  1
  5  9  1
  5 10  1
  6 11  2
  6 12  1
 11 13  1
 12 14  2
 13 15  1
 13 16  2
 15 17  1
 17 18  2
 17 19  1
 19 20  2
 19 21  1
 20 22  1
 21 23  2
 22 24  2
 22 25  1
 23 26  1
 25 27  1
 25 28  1
 25 29  1
 26 30  1
 26 31  1
  8  9  2
 14 16  1
 23 24  1
 30 31  1
M  END
> <COMPOUND_NAMES>
Example 67 (S) (Page No: 382)

> <Reference>
WO2019148005

> <IC50_range_nM>
<100

> <smiles>
C[C@@H](c1cccc(c1)NC(c1cc(cc(C(F)(F)F)n1)C1CC1)=O)Sc1nncn1C

$$$$
C21H20F3N5OS
  MOLSOFT 03092310482D

 31 34  0  0  1  0  0  0  0  0999 V2000
    0.0000   -0.0000    0.0000 S   0  0  0
   -1.3149    0.7582    0.0000 C   0  0  0
    1.2912    0.7582    0.0000 C   0  0  2
   -2.7010    0.1540    0.0000 N   0  0  0
   -1.4808    2.2626    0.0000 N   0  0  0
    2.5825    0.0237    0.0000 C   0  0  0
    1.2794    2.2745    0.0000 C   0  0  0
   -3.7197    1.2794    0.0000 N   0  0  0
   -2.9616    2.5825    0.0000 C   0  0  0
   -0.3791    3.2814    0.0000 C   0  0  0
    2.5706   -1.4689    0.0000 C   0  0  0
    3.8737    0.7819    0.0000 C   0  0  0
    3.8619   -2.2034    0.0000 C   0  0  0
    5.1650    0.0474    0.0000 C   0  0  0
    3.8500   -3.6960    0.0000 N   0  0  0
    5.1531   -1.4452    0.0000 C   0  0  0
    2.5351   -4.4305    0.0000 C   0  0  0
    1.2202   -3.6723    0.0000 O   0  0  0
    2.5233   -5.9231    0.0000 C   0  0  0
    3.8145   -6.6576    0.0000 N   0  0  0
    1.2083   -6.6576    0.0000 C   0  0  0
    3.8027   -8.1502    0.0000 C   0  0  0
    1.1965   -8.1502    0.0000 C   0  0  0
    2.4877   -8.8847    0.0000 C   0  0  0
    5.0939   -8.8847    0.0000 C   0  0  0
   -0.1185   -8.8847    0.0000 C   0  0  0
    6.5865   -8.8729    0.0000 C   0  0  0
    5.8284  -10.1760    0.0000 C   0  0  0
   -0.8766   -7.5698    0.0000 F   0  0  0
   -1.4334   -9.6192    0.0000 F   0  0  0
    0.6160  -10.1760    0.0000 F   0  0  0
  1  2  1
  3  1  1  1  0
  2  4  2
  2  5  1
  3  6  1
  3  7  1
  4  8  1
  5  9  1
  5 10  1
  6 11  2
  6 12  1
 11 13  1
 12 14  2
 13 15  1
 13 16  2
 15 17  1
 17 18  2
 17 19  1
 19 20  2
 19 21  1
 20 22  1
 21 23  2
 22 24  2
 22 25  1
 23 26  1
 25 27  1
 25 28  1
 26 29  1
 26 30  1
 26 31  1
  8  9  2
 14 16  1
 23 24  1
 27 28  1
M  END
> <COMPOUND_NAMES>
Example 69 (S) (Page No: 383)

> <Reference>
WO2019148005

> <IC50_range_nM>
301-1000

> <smiles>
C[C@@H](c1cccc(c1)NC(c1cc(cc(C2CC2)n1)C(F)(F)F)=O)Sc1nncn1C

$$$$
C21H23N5O2S
  MOLSOFT 03092310482D

 29 32  0  0  1  0  0  0  0  0999 V2000
    0.0000   -0.0000    0.0000 S   0  0  0
   -1.3173   -0.7358    0.0000 C   0  0  0
    1.2935   -0.7358    0.0000 C   0  0  2
   -1.4834   -2.2192    0.0000 N   0  0  0
   -2.7057   -0.1068    0.0000 N   0  0  0
    2.5871    0.0237    0.0000 C   0  0  0
    1.2817   -2.2311    0.0000 C   0  0  0
   -2.9668   -2.5159    0.0000 N   0  0  0
   -3.7263   -1.2105    0.0000 C   0  0  0
   -3.0262    1.3766    0.0000 C   0  0  0
    3.8806   -0.7120    0.0000 C   0  0  0
    2.5752    1.5427    0.0000 C   0  0  0
    5.1741    0.0475    0.0000 C   0  0  0
    3.8687    2.3023    0.0000 C   0  0  0
    6.4677   -0.6883    0.0000 N   0  0  0
    5.1623    1.5665    0.0000 C   0  0  0
    6.4558   -2.1836    0.0000 C   0  0  0
    5.1385   -2.9194    0.0000 O   0  0  0
    7.7493   -2.9194    0.0000 C   0  0  0
    7.7375   -4.4146    0.0000 N   0  0  0
    9.0429   -2.1598    0.0000 C   0  0  0
    9.0310   -5.1504    0.0000 C   0  0  0
   10.3364   -2.8956    0.0000 C   0  0  0
   10.3245   -4.3909    0.0000 C   0  0  0
    9.0191   -6.6457    0.0000 C   0  0  0
   11.6181   -5.1267    0.0000 O   0  0  0
    9.7549   -7.9392    0.0000 C   0  0  0
    8.2478   -7.9392    0.0000 C   0  0  0
   12.9116   -4.3672    0.0000 C   0  0  0
  1  2  1
  3  1  1  6  0
  2  4  2
  2  5  1
  3  6  1
  3  7  1
  4  8  1
  5  9  1
  5 10  1
  6 11  2
  6 12  1
 11 13  1
 12 14  2
 13 15  1
 13 16  2
 15 17  1
 17 18  2
 17 19  1
 19 20  2
 19 21  1
 20 22  1
 21 23  2
 22 24  2
 22 25  1
 24 26  1
 25 27  1
 25 28  1
 26 29  1
  8  9  2
 14 16  1
 23 24  1
 27 28  1
M  END
> <COMPOUND_NAMES>
Example 93 (S) (Page No: 394)

> <Reference>
WO2019148005

> <IC50_range_nM>
<100

> <smiles>
C[C@@H](c1cccc(c1)NC(c1ccc(c(C2CC2)n1)OC)=O)Sc1nncn1C

$$$$
C18H18F2N6OS
  MOLSOFT 03092310482D

 28 30  0  0  1  0  0  0  0  0999 V2000
    0.0000   -0.0000    0.0000 S   0  0  0
   -1.3153    0.7584    0.0000 C   0  0  0
    1.2916    0.7584    0.0000 C   0  0  2
   -2.7017    0.1540    0.0000 N   0  0  0
   -1.4812    2.2633    0.0000 N   0  0  0
    2.5832    0.0237    0.0000 C   0  0  0
    1.2798    2.2751    0.0000 C   0  0  0
   -3.7208    1.2798    0.0000 N   0  0  0
   -2.9624    2.5832    0.0000 C   0  0  0
   -0.3792    3.2823    0.0000 C   0  0  0
    2.5714   -1.4693    0.0000 C   0  0  0
    3.8748    0.7821    0.0000 C   0  0  0
    3.8630   -2.2040    0.0000 C   0  0  0
    5.1664    0.0474    0.0000 C   0  0  0
    5.1546   -1.4456    0.0000 N   0  0  0
    3.8511   -3.6971    0.0000 N   0  0  0
    2.5358   -4.4317    0.0000 C   0  0  0
    1.2205   -3.6734    0.0000 O   0  0  0
    2.5240   -5.9248    0.0000 C   0  0  0
    3.8156   -6.6595    0.0000 N   0  0  0
    1.2087   -6.6595    0.0000 C   0  0  0
    3.8037   -8.1525    0.0000 C   0  0  0
    1.1968   -8.1525    0.0000 C   0  0  0
    2.4884   -8.8872    0.0000 C   0  0  0
    5.0953   -8.8872    0.0000 C   0  0  0
    6.3869   -9.6218    0.0000 F   0  0  0
    5.8300   -7.5719    0.0000 F   0  0  0
    4.3369  -10.1788    0.0000 C   0  0  0
  1  2  1
  3  1  1  1  0
  2  4  2
  2  5  1
  3  6  1
  3  7  1
  4  8  1
  5  9  1
  5 10  1
  6 11  2
  6 12  1
 11 13  1
 12 14  2
 13 15  2
 13 16  1
 16 17  1
 17 18  2
 17 19  1
 19 20  2
 19 21  1
 20 22  1
 21 23  2
 22 24  2
 22 25  1
 25 26  1
 25 27  1
 25 28  1
  8  9  2
 14 15  1
 23 24  1
M  END
> <COMPOUND_NAMES>
Example 110 (S) (Page No: 402)

> <Reference>
WO2019148005

> <IC50_range_nM>
301-1000

> <smiles>
C[C@@H](c1ccnc(c1)NC(c1cccc(C(C)(F)F)n1)=O)Sc1nncn1C

$$$$
C18H17F3N6OS
  MOLSOFT 03092310482D

 29 31  0  0  1  0  0  0  0  0999 V2000
    0.0000   -0.0000    0.0000 S   0  0  0
   -1.3145    0.7579    0.0000 C   0  0  0
    1.2909    0.7579    0.0000 C   0  0  2
   -2.7001    0.1540    0.0000 N   0  0  0
   -1.4803    2.2619    0.0000 N   0  0  0
    2.5817    0.0237    0.0000 C   0  0  0
    1.2790    2.2738    0.0000 C   0  0  0
   -3.7186    1.2790    0.0000 N   0  0  0
   -2.9607    2.5817    0.0000 C   0  0  0
   -0.3790    3.2804    0.0000 C   0  0  0
    2.5699   -1.4685    0.0000 C   0  0  0
    3.8726    0.7816    0.0000 C   0  0  0
    3.8607   -2.2027    0.0000 C   0  0  0
    5.1634    0.0474    0.0000 C   0  0  0
    5.1516   -1.4448    0.0000 N   0  0  0
    3.8489   -3.6949    0.0000 N   0  0  0
    2.5343   -4.4292    0.0000 C   0  0  0
    1.2198   -3.6712    0.0000 O   0  0  0
    2.5225   -5.9213    0.0000 C   0  0  0
    1.2080   -6.6556    0.0000 N   0  0  0
    3.8133   -6.6556    0.0000 C   0  0  0
    1.1961   -8.1478    0.0000 C   0  0  0
    3.8015   -8.1478    0.0000 C   0  0  0
    2.4870   -8.8820    0.0000 C   0  0  0
   -0.1184   -8.8820    0.0000 C   0  0  0
    5.0923   -8.8820    0.0000 C   0  0  0
   -0.8764   -7.5675    0.0000 F   0  0  0
   -1.4330   -9.6162    0.0000 F   0  0  0
    0.6158  -10.1729    0.0000 F   0  0  0
  1  2  1
  3  1  1  1  0
  2  4  2
  2  5  1
  3  6  1
  3  7  1
  4  8  1
  5  9  1
  5 10  1
  6 11  2
  6 12  1
 11 13  1
 12 14  2
 13 15  2
 13 16  1
 16 17  1
 17 18  2
 17 19  1
 19 20  2
 19 21  1
 20 22  1
 21 23  2
 22 24  2
 22 25  1
 23 26  1
 25 27  1
 25 28  1
 25 29  1
  8  9  2
 14 15  1
 23 24  1
M  END
> <COMPOUND_NAMES>
Example 103 (S) (Page No: 399)

> <Reference>
WO2019148005

> <IC50_range_nM>
301-1000

> <smiles>
Cc1cc(C(Nc2cc(ccn2)[C@H](C)Sc2nncn2C)=O)nc(c1)C(F)(F)F

$$$$
C17H15F3N6OS
  MOLSOFT 03092310482D

 28 30  0  0  1  0  0  0  0  0999 V2000
    0.0000   -0.0000    0.0000 S   0  0  0
   -1.3153    0.7584    0.0000 C   0  0  0
    1.2916    0.7584    0.0000 C   0  0  2
   -2.7017    0.1540    0.0000 N   0  0  0
   -1.4812    2.2633    0.0000 N   0  0  0
    2.5832    0.0237    0.0000 C   0  0  0
    1.2798    2.2751    0.0000 C   0  0  0
   -3.7208    1.2798    0.0000 N   0  0  0
   -2.9624    2.5832    0.0000 C   0  0  0
   -0.3792    3.2823    0.0000 C   0  0  0
    2.5714   -1.4693    0.0000 C   0  0  0
    3.8748    0.7821    0.0000 C   0  0  0
    3.8630   -2.2040    0.0000 C   0  0  0
    5.1664    0.0474    0.0000 C   0  0  0
    5.1546   -1.4456    0.0000 N   0  0  0
    3.8511   -3.6971    0.0000 N   0  0  0
    2.5358   -4.4317    0.0000 C   0  0  0
    1.2205   -3.6734    0.0000 O   0  0  0
    2.5240   -5.9248    0.0000 C   0  0  0
    3.8156   -6.6595    0.0000 N   0  0  0
    1.2087   -6.6595    0.0000 C   0  0  0
    3.8037   -8.1525    0.0000 C   0  0  0
    1.1968   -8.1525    0.0000 C   0  0  0
    2.4884   -8.8872    0.0000 C   0  0  0
    5.0953   -8.8872    0.0000 C   0  0  0
    4.3369  -10.1788    0.0000 F   0  0  0
    6.3869   -9.6218    0.0000 F   0  0  0
    5.8300   -7.5719    0.0000 F   0  0  0
  1  2  1
  3  1  1  1  0
  2  4  2
  2  5  1
  3  6  1
  3  7  1
  4  8  1
  5  9  1
  5 10  1
  6 11  2
  6 12  1
 11 13  1
 12 14  2
 13 15  2
 13 16  1
 16 17  1
 17 18  2
 17 19  1
 19 20  2
 19 21  1
 20 22  1
 21 23  2
 22 24  2
 22 25  1
 25 26  1
 25 27  1
 25 28  1
  8  9  2
 14 15  1
 23 24  1
M  END
> <COMPOUND_NAMES>
Example 102b (S) (Page No: 399)

> <Reference>
WO2019148005

> <IC50_range_nM>
1001-3000

> <smiles>
C[C@@H](c1ccnc(c1)NC(c1cccc(C(F)(F)F)n1)=O)Sc1nncn1C

$$$$
C17H14ClF3N6OS
  MOLSOFT 03092310482D

 29 31  0  0  1  0  0  0  0  0999 V2000
    0.0000   -0.0000    0.0000 Cl  0  0  0
   -1.3051    0.7525    0.0000 C   0  0  0
   -1.3169    2.2575    0.0000 C   0  0  0
   -2.6102    0.0235    0.0000 C   0  0  0
   -2.6220    3.0100    0.0000 C   0  0  0
   -3.9153    0.7760    0.0000 C   0  0  0
   -3.9271    2.2810    0.0000 N   0  0  0
   -2.6337    4.5150    0.0000 C   0  0  0
   -5.2204    0.0470    0.0000 C   0  0  0
   -3.9388    5.2674    0.0000 O   0  0  0
   -1.3521    5.2674    0.0000 N   0  0  0
   -5.9729    1.3521    0.0000 F   0  0  0
   -6.5255   -0.6819    0.0000 F   0  0  0
   -4.4914   -1.2346    0.0000 F   0  0  0
   -1.3639    6.7724    0.0000 C   0  0  0
   -0.0823    7.5249    0.0000 N   0  0  0
   -2.6690    7.5249    0.0000 C   0  0  0
   -0.0941    9.0299    0.0000 C   0  0  0
   -2.6808    9.0299    0.0000 C   0  0  0
   -1.3992    9.7824    0.0000 C   0  0  0
   -3.9859    9.7824    0.0000 C   0  0  1
   -5.2910    9.0534    0.0000 S   0  0  0
   -3.9976   11.2874    0.0000 C   0  0  0
   -6.5961    9.8059    0.0000 C   0  0  0
   -7.9717    9.2063    0.0000 N   0  0  0
   -6.7607   11.2991    0.0000 N   0  0  0
   -8.9829   10.3233    0.0000 N   0  0  0
   -8.2304   11.6166    0.0000 C   0  0  0
   -5.6672   12.3103    0.0000 C   0  0  0
  1  2  1
  2  3  2
  2  4  1
  3  5  1
  4  6  2
  5  7  2
  5  8  1
  6  9  1
  8 10  2
  8 11  1
  9 12  1
  9 13  1
  9 14  1
 11 15  1
 15 16  2
 15 17  1
 16 18  1
 17 19  2
 18 20  2
 21 19  1
 21 22  1  1  0
 21 23  1
 22 24  1
 24 25  2
 24 26  1
 25 27  1
 26 28  1
 26 29  1
  6  7  1
 19 20  1
 27 28  2
M  END
> <COMPOUND_NAMES>
Example 105 (S) (Page No: 400)

> <Reference>
WO2019148005

> <IC50_range_nM>
301-1000

> <smiles>
C[C@@H](c1ccnc(c1)NC(c1cc(cc(C(F)(F)F)n1)[Cl])=O)Sc1nncn1C

$$$$
C17H14BrF3N6OS
  MOLSOFT 03092310482D

 29 31  0  0  1  0  0  0  0  0999 V2000
    0.0000   -0.0000    0.0000 Br  0  0  0
    1.2855    0.7548    0.0000 C   0  0  0
    1.2737    2.2644    0.0000 C   0  0  0
    2.5711    0.0236    0.0000 C   0  0  0
    2.5593    3.0192    0.0000 C   0  0  0
    3.8566    0.7784    0.0000 C   0  0  0
    3.8448    2.2880    0.0000 N   0  0  0
    2.5475    4.5289    0.0000 C   0  0  0
    5.1421    0.0472    0.0000 C   0  0  0
    1.2384    5.2837    0.0000 O   0  0  0
    3.8330    5.2837    0.0000 N   0  0  0
    4.3873   -1.2384    0.0000 F   0  0  0
    6.4277   -0.6840    0.0000 F   0  0  0
    5.8734    1.3563    0.0000 F   0  0  0
    3.8212    6.7933    0.0000 C   0  0  0
    5.1068    7.5481    0.0000 N   0  0  0
    2.5121    7.5481    0.0000 C   0  0  0
    5.0950    9.0577    0.0000 C   0  0  0
    2.5003    9.0577    0.0000 C   0  0  0
    3.7858    9.8125    0.0000 C   0  0  0
    1.1912    9.8125    0.0000 C   0  0  1
   -0.1179    9.0813    0.0000 S   0  0  0
    1.1794   11.3221    0.0000 C   0  0  0
   -1.4271    9.8361    0.0000 C   0  0  0
   -2.8069    9.2346    0.0000 N   0  0  0
   -1.5922   11.3339    0.0000 N   0  0  0
   -3.8212   10.3550    0.0000 N   0  0  0
   -3.0664   11.6524    0.0000 C   0  0  0
   -0.4953   12.3482    0.0000 C   0  0  0
  1  2  1
  2  3  2
  2  4  1
  3  5  1
  4  6  2
  5  7  2
  5  8  1
  6  9  1
  8 10  2
  8 11  1
  9 12  1
  9 13  1
  9 14  1
 11 15  1
 15 16  2
 15 17  1
 16 18  1
 17 19  2
 18 20  2
 21 19  1
 21 22  1  1  0
 21 23  1
 22 24  1
 24 25  2
 24 26  1
 25 27  1
 26 28  1
 26 29  1
  6  7  1
 19 20  1
 27 28  2
M  END
> <COMPOUND_NAMES>
Example 119 (S) (Page No: 405)

> <Reference>
WO2019148005

> <IC50_range_nM>
301-1000

> <smiles>
C[C@@H](c1ccnc(c1)NC(c1cc(cc(C(F)(F)F)n1)[Br])=O)Sc1nncn1C

$$$$
C17H14ClF3N6OS
  MOLSOFT 03092310482D

 29 31  0  0  1  0  0  0  0  0999 V2000
    0.0000   -0.0000    0.0000 Cl  0  0  0
   -0.0118    1.5056    0.0000 C   0  0  0
   -1.3174    2.2584    0.0000 C   0  0  0
    1.2703    2.2584    0.0000 C   0  0  0
   -1.3292    3.7640    0.0000 N   0  0  0
   -2.6230    1.5291    0.0000 C   0  0  0
    1.2586    3.7640    0.0000 C   0  0  0
   -0.0470    4.5168    0.0000 C   0  0  0
   -3.3758    2.8348    0.0000 F   0  0  0
   -3.9287    0.7998    0.0000 F   0  0  0
   -1.8938    0.2470    0.0000 F   0  0  0
   -0.0588    6.0224    0.0000 C   0  0  0
   -1.3644    6.7752    0.0000 O   0  0  0
    1.2233    6.7752    0.0000 N   0  0  0
    1.2115    8.2808    0.0000 C   0  0  0
    2.4936    9.0336    0.0000 N   0  0  0
   -0.0941    9.0336    0.0000 C   0  0  0
    2.4819   10.5392    0.0000 C   0  0  0
   -0.1059   10.5392    0.0000 C   0  0  0
    1.1762   11.2920    0.0000 C   0  0  0
   -1.4115   11.2920    0.0000 C   0  0  1
   -2.7171   10.5627    0.0000 S   0  0  0
   -1.4233   12.7976    0.0000 C   0  0  0
   -4.0228   11.3155    0.0000 C   0  0  0
   -5.3990   10.7156    0.0000 N   0  0  0
   -4.1874   12.8093    0.0000 N   0  0  0
   -6.4106   11.8331    0.0000 N   0  0  0
   -5.6578   13.1269    0.0000 C   0  0  0
   -3.0935   13.8209    0.0000 C   0  0  0
  1  2  1
  2  3  2
  2  4  1
  3  5  1
  3  6  1
  4  7  2
  5  8  2
  6  9  1
  6 10  1
  6 11  1
  8 12  1
 12 13  2
 12 14  1
 14 15  1
 15 16  2
 15 17  1
 16 18  1
 17 19  2
 18 20  2
 21 19  1
 21 22  1  1  0
 21 23  1
 22 24  1
 24 25  2
 24 26  1
 25 27  1
 26 28  1
 26 29  1
  7  8  1
 19 20  1
 27 28  2
M  END
> <COMPOUND_NAMES>
Example 106 (S) (Page No: 400)

> <Reference>
WO2019148005

> <IC50_range_nM>
1001-3000

> <smiles>
C[C@@H](c1ccnc(c1)NC(c1ccc(c(C(F)(F)F)n1)[Cl])=O)Sc1nncn1C

$$$$
C17H14ClF3N6OS
  MOLSOFT 03092310482D

 29 31  0  0  1  0  0  0  0  0999 V2000
    0.0000   -0.0000    0.0000 Cl  0  0  0
   -0.0118    1.5069    0.0000 C   0  0  0
    1.2715    2.2604    0.0000 C   0  0  0
   -1.3186    2.2604    0.0000 C   0  0  0
    1.2597    3.7673    0.0000 C   0  0  0
    2.5547    1.5305    0.0000 C   0  0  0
   -1.3303    3.7673    0.0000 N   0  0  0
   -0.0471    4.5208    0.0000 C   0  0  0
    1.8012    0.2472    0.0000 F   0  0  0
    3.8379    0.8006    0.0000 F   0  0  0
    3.2846    2.8372    0.0000 F   0  0  0
   -0.0589    6.0277    0.0000 C   0  0  0
   -1.3656    6.7811    0.0000 O   0  0  0
    1.2244    6.7811    0.0000 N   0  0  0
    1.2126    8.2881    0.0000 C   0  0  0
    2.4958    9.0415    0.0000 N   0  0  0
   -0.0942    9.0415    0.0000 C   0  0  0
    2.4841   10.5484    0.0000 C   0  0  0
   -0.1060   10.5484    0.0000 C   0  0  0
    1.1773   11.3019    0.0000 C   0  0  0
   -1.4127   11.3019    0.0000 C   0  0  1
   -2.7195   10.5720    0.0000 S   0  0  0
   -1.4245   12.8088    0.0000 C   0  0  0
   -4.0263   11.3254    0.0000 C   0  0  0
   -5.4037   10.7250    0.0000 N   0  0  0
   -4.1911   12.8206    0.0000 N   0  0  0
   -6.4162   11.8435    0.0000 N   0  0  0
   -5.6627   13.1385    0.0000 C   0  0  0
   -3.0963   13.8331    0.0000 C   0  0  0
  1  2  1
  2  3  2
  2  4  1
  3  5  1
  3  6  1
  4  7  2
  5  8  2
  6  9  1
  6 10  1
  6 11  1
  8 12  1
 12 13  2
 12 14  1
 14 15  1
 15 16  2
 15 17  1
 16 18  1
 17 19  2
 18 20  2
 21 19  1
 21 22  1  1  0
 21 23  1
 22 24  1
 24 25  2
 24 26  1
 25 27  1
 26 28  1
 26 29  1
  7  8  1
 19 20  1
 27 28  2
M  END
> <COMPOUND_NAMES>
Example 114 (S) (Page No: 403)

> <Reference>
WO2019148005

> <IC50_range_nM>
3001-10000

> <smiles>
C[C@@H](c1ccnc(c1)NC(c1cc(c(cn1)[Cl])C(F)(F)F)=O)Sc1nncn1C

$$$$
C20H19F3N6OS
  MOLSOFT 03092310482D

 31 34  0  0  1  0  0  0  0  0999 V2000
    0.0000   -0.0000    0.0000 S   0  0  0
   -1.3149    0.7582    0.0000 C   0  0  0
    1.2912    0.7582    0.0000 C   0  0  2
   -2.7010    0.1540    0.0000 N   0  0  0
   -1.4808    2.2626    0.0000 N   0  0  0
    2.5825    0.0237    0.0000 C   0  0  0
    1.2794    2.2745    0.0000 C   0  0  0
   -3.7197    1.2794    0.0000 N   0  0  0
   -2.9616    2.5825    0.0000 C   0  0  0
   -0.3791    3.2814    0.0000 C   0  0  0
    2.5706   -1.4689    0.0000 C   0  0  0
    3.8737    0.7819    0.0000 C   0  0  0
    3.8619   -2.2034    0.0000 C   0  0  0
    5.1650    0.0474    0.0000 C   0  0  0
    5.1531   -1.4452    0.0000 N   0  0  0
    3.8500   -3.6960    0.0000 N   0  0  0
    2.5351   -4.4305    0.0000 C   0  0  0
    1.2202   -3.6723    0.0000 O   0  0  0
    2.5233   -5.9231    0.0000 C   0  0  0
    1.2083   -6.6576    0.0000 N   0  0  0
    3.8145   -6.6576    0.0000 C   0  0  0
    1.1965   -8.1502    0.0000 C   0  0  0
    3.8027   -8.1502    0.0000 C   0  0  0
    2.4877   -8.8847    0.0000 C   0  0  0
   -0.1185   -8.8847    0.0000 C   0  0  0
    5.0939   -8.8847    0.0000 C   0  0  0
   -0.8766   -7.5698    0.0000 F   0  0  0
   -1.4334   -9.6192    0.0000 F   0  0  0
    0.6160  -10.1760    0.0000 F   0  0  0
    6.5865   -8.8729    0.0000 C   0  0  0
    5.8284  -10.1760    0.0000 C   0  0  0
  1  2  1
  3  1  1  1  0
  2  4  2
  2  5  1
  3  6  1
  3  7  1
  4  8  1
  5  9  1
  5 10  1
  6 11  2
  6 12  1
 11 13  1
 12 14  2
 13 15  2
 13 16  1
 16 17  1
 17 18  2
 17 19  1
 19 20  2
 19 21  1
 20 22  1
 21 23  2
 22 24  2
 22 25  1
 23 26  1
 25 27  1
 25 28  1
 25 29  1
 26 30  1
 26 31  1
  8  9  2
 14 15  1
 23 24  1
 30 31  1
M  END
> <COMPOUND_NAMES>
Example 104 (S) (Page No: 400)

> <Reference>
WO2019148005

> <IC50_range_nM>
301-1000

> <smiles>
C[C@@H](c1ccnc(c1)NC(c1cc(cc(C(F)(F)F)n1)C1CC1)=O)Sc1nncn1C

$$$$
C20H22N6OS
  MOLSOFT 03092310482D

 28 31  0  0  1  0  0  0  0  0999 V2000
    0.0000   -0.0000    0.0000 S   0  0  0
   -1.3156    0.7585    0.0000 C   0  0  0
    1.2919    0.7585    0.0000 C   0  0  2
   -2.7023    0.1541    0.0000 N   0  0  0
   -1.4815    2.2638    0.0000 N   0  0  0
    2.5838    0.0237    0.0000 C   0  0  0
    1.2800    2.2756    0.0000 C   0  0  0
   -3.7216    1.2800    0.0000 N   0  0  0
   -2.9630    2.5838    0.0000 C   0  0  0
   -0.3793    3.2830    0.0000 C   0  0  0
    2.5719   -1.4697    0.0000 C   0  0  0
    3.8757    0.7822    0.0000 C   0  0  0
    3.8638   -2.2045    0.0000 C   0  0  0
    5.1675    0.0474    0.0000 C   0  0  0
    5.1557   -1.4460    0.0000 N   0  0  0
    3.8519   -3.6979    0.0000 N   0  0  0
    2.5364   -4.4327    0.0000 C   0  0  0
    1.2208   -3.6742    0.0000 O   0  0  0
    2.5245   -5.9261    0.0000 C   0  0  0
    3.8164   -6.6609    0.0000 N   0  0  0
    1.2089   -6.6609    0.0000 C   0  0  0
    3.8045   -8.1543    0.0000 C   0  0  0
    1.1971   -8.1543    0.0000 C   0  0  0
    2.4890   -8.8891    0.0000 C   0  0  0
    5.0964   -8.8891    0.0000 C   0  0  0
    2.4771  -10.3825    0.0000 C   0  0  0
    6.5898   -8.8773    0.0000 C   0  0  0
    5.8313  -10.1810    0.0000 C   0  0  0
  1  2  1
  3  1  1  1  0
  2  4  2
  2  5  1
  3  6  1
  3  7  1
  4  8  1
  5  9  1
  5 10  1
  6 11  2
  6 12  1
 11 13  1
 12 14  2
 13 15  2
 13 16  1
 16 17  1
 17 18  2
 17 19  1
 19 20  2
 19 21  1
 20 22  1
 21 23  2
 22 24  2
 22 25  1
 24 26  1
 25 27  1
 25 28  1
  8  9  2
 14 15  1
 23 24  1
 27 28  1
M  END
> <COMPOUND_NAMES>
Example 113 (S) (Page No: 403)

> <Reference>
WO2019148005

> <IC50_range_nM>
301-1000

> <smiles>
Cc1ccc(C(Nc2cc(ccn2)[C@H](C)Sc2nncn2C)=O)nc1C1CC1

$$$$
C19H20N6OS
  MOLSOFT 03092310482D

 27 30  0  0  1  0  0  0  0  0999 V2000
    0.0000   -0.0000    0.0000 S   0  0  0
   -1.3154    0.7584    0.0000 C   0  0  0
    1.2917    0.7584    0.0000 C   0  0  2
   -2.7019    0.1541    0.0000 N   0  0  0
   -1.4813    2.2634    0.0000 N   0  0  0
    2.5834    0.0237    0.0000 C   0  0  0
    1.2798    2.2753    0.0000 C   0  0  0
   -3.7210    1.2798    0.0000 N   0  0  0
   -2.9626    2.5834    0.0000 C   0  0  0
   -0.3792    3.2826    0.0000 C   0  0  0
    2.5715   -1.4695    0.0000 C   0  0  0
    3.8751    0.7821    0.0000 C   0  0  0
    3.8632   -2.2042    0.0000 C   0  0  0
    5.1668    0.0474    0.0000 C   0  0  0
    5.1549   -1.4458    0.0000 N   0  0  0
    3.8514   -3.6973    0.0000 N   0  0  0
    2.5360   -4.4321    0.0000 C   0  0  0
    1.2206   -3.6736    0.0000 O   0  0  0
    2.5241   -5.9252    0.0000 C   0  0  0
    3.8158   -6.6599    0.0000 N   0  0  0
    1.2087   -6.6599    0.0000 C   0  0  0
    3.8040   -8.1531    0.0000 C   0  0  0
    1.1969   -8.1531    0.0000 C   0  0  0
    2.4886   -8.8878    0.0000 C   0  0  0
    5.0957   -8.8878    0.0000 C   0  0  0
    6.5888   -8.8760    0.0000 C   0  0  0
    5.8304  -10.1795    0.0000 C   0  0  0
  1  2  1
  3  1  1  1  0
  2  4  2
  2  5  1
  3  6  1
  3  7  1
  4  8  1
  5  9  1
  5 10  1
  6 11  2
  6 12  1
 11 13  1
 12 14  2
 13 15  2
 13 16  1
 16 17  1
 17 18  2
 17 19  1
 19 20  2
 19 21  1
 20 22  1
 21 23  2
 22 24  2
 22 25  1
 25 26  1
 25 27  1
  8  9  2
 14 15  1
 23 24  1
 26 27  1
M  END
> <COMPOUND_NAMES>
Example 117 (S) (Page No: 404)

> <Reference>
WO2019148005

> <IC50_range_nM>
1001-3000

> <smiles>
C[C@@H](c1ccnc(c1)NC(c1cccc(C2CC2)n1)=O)Sc1nncn1C

$$$$
C18H20N6OS
  MOLSOFT 03092310482D

 26 28  0  0  1  0  0  0  0  0999 V2000
    0.0000   -0.0000    0.0000 S   0  0  0
   -0.3288   -1.4563    0.0000 C   0  0  0
    1.4211    0.4698    0.0000 C   0  0  2
    0.6577   -2.5603    0.0000 N   0  0  0
   -1.7147   -2.0553    0.0000 N   0  0  0
    1.7264    1.9496    0.0000 C   0  0  0
    2.5250   -0.5168    0.0000 C   0  0  0
   -0.1057   -3.8522    0.0000 N   0  0  0
   -1.5737   -3.5351    0.0000 C   0  0  0
   -3.0301   -1.2919    0.0000 C   0  0  0
    3.1357    2.4193    0.0000 C   0  0  0
    0.5990    2.9713    0.0000 C   0  0  0
    3.4411    3.8991    0.0000 C   0  0  0
    0.9043    4.4511    0.0000 C   0  0  0
    2.3136    4.9209    0.0000 N   0  0  0
    4.8504    4.3689    0.0000 N   0  0  0
    5.1558    5.8487    0.0000 C   0  0  0
    4.0283    6.8587    0.0000 O   0  0  0
    6.5651    6.3185    0.0000 C   0  0  0
    6.8705    7.7983    0.0000 N   0  0  0
    7.6691    5.3202    0.0000 C   0  0  0
    8.2798    8.2680    0.0000 C   0  0  0
    9.0784    5.8017    0.0000 C   0  0  0
    9.3838    7.2698    0.0000 C   0  0  0
    8.5851    9.7478    0.0000 C   0  0  0
    7.4577   10.7579    0.0000 C   0  0  0
  1  2  1
  3  1  1  6  0
  2  4  2
  2  5  1
  3  6  1
  3  7  1
  4  8  1
  5  9  1
  5 10  1
  6 11  2
  6 12  1
 11 13  1
 12 14  2
 13 15  2
 13 16  1
 16 17  1
 17 18  2
 17 19  1
 19 20  2
 19 21  1
 20 22  1
 21 23  2
 22 24  2
 22 25  1
 25 26  1
  8  9  2
 14 15  1
 23 24  1
M  END
> <COMPOUND_NAMES>
Example 123 (S) (Page No: 407)

> <Reference>
WO2019148005

> <IC50_range_nM>
1001-3000

> <smiles>
CCc1cccc(C(Nc2cc(ccn2)[C@H](C)Sc2nncn2C)=O)n1

$$$$
C16H15ClN6OS
  MOLSOFT 03092310482D

 25 27  0  0  1  0  0  0  0  0999 V2000
    0.0000   -0.0000    0.0000 Cl  0  0  0
   -1.3044    0.7521    0.0000 C   0  0  0
   -1.3161    2.2562    0.0000 N   0  0  0
   -2.6087    0.0235    0.0000 C   0  0  0
   -2.6205    3.0082    0.0000 C   0  0  0
   -3.9131    0.7756    0.0000 C   0  0  0
   -2.6322    4.5124    0.0000 C   0  0  0
   -3.9248    2.2679    0.0000 C   0  0  0
   -3.9366    5.2644    0.0000 O   0  0  0
   -1.3514    5.2644    0.0000 N   0  0  0
   -1.3631    6.7685    0.0000 C   0  0  0
   -0.0823    7.5206    0.0000 N   0  0  0
   -2.6675    7.5206    0.0000 C   0  0  0
   -0.0940    9.0247    0.0000 C   0  0  0
   -2.6792    9.0247    0.0000 C   0  0  0
   -1.3984    9.7768    0.0000 C   0  0  0
   -3.9836    9.7768    0.0000 C   0  0  1
   -5.2879    9.0482    0.0000 S   0  0  0
   -3.9953   11.2809    0.0000 C   0  0  0
   -6.5923    9.8003    0.0000 C   0  0  0
   -7.9671    9.2010    0.0000 N   0  0  0
   -6.7568   11.2926    0.0000 N   0  0  0
   -8.9777   10.3173    0.0000 N   0  0  0
   -8.2257   11.6099    0.0000 C   0  0  0
   -5.6639   12.3032    0.0000 C   0  0  0
  1  2  1
  2  3  2
  2  4  1
  3  5  1
  4  6  2
  5  7  1
  5  8  2
  7  9  2
  7 10  1
 10 11  1
 11 12  2
 11 13  1
 12 14  1
 13 15  2
 14 16  2
 17 15  1
 17 18  1  1  0
 17 19  1
 18 20  1
 20 21  2
 20 22  1
 21 23  1
 22 24  1
 22 25  1
  6  8  1
 15 16  1
 23 24  2
M  END
> <COMPOUND_NAMES>
Example 124 (S) (Page No: 407)

> <Reference>
WO2019148005

> <IC50_range_nM>
1001-3000

> <smiles>
C[C@@H](c1ccnc(c1)NC(c1cccc(n1)[Cl])=O)Sc1nncn1C

$$$$
C18H15ClF3N5OS
  MOLSOFT 03092310482D

 29 31  0  0  1  0  0  0  0  0999 V2000
    0.0000   -0.0000    0.0000 Cl  0  0  0
    1.2855    0.7548    0.0000 C   0  0  0
    1.2737    2.2644    0.0000 N   0  0  0
    2.5711    0.0236    0.0000 C   0  0  0
    2.5593    3.0192    0.0000 C   0  0  0
    3.8566    0.7784    0.0000 C   0  0  0
    2.5475    4.5289    0.0000 C   0  0  0
    3.8448    2.2880    0.0000 C   0  0  0
    5.1421    0.0472    0.0000 C   0  0  0
    1.2384    5.2837    0.0000 O   0  0  0
    3.8330    5.2837    0.0000 N   0  0  0
    4.3873   -1.2384    0.0000 F   0  0  0
    6.4277   -0.6840    0.0000 F   0  0  0
    5.8734    1.3563    0.0000 F   0  0  0
    3.8212    6.7933    0.0000 C   0  0  0
    2.5121    7.5481    0.0000 C   0  0  0
    5.1068    7.5481    0.0000 C   0  0  0
    2.5003    9.0577    0.0000 C   0  0  0
    5.0950    9.0577    0.0000 C   0  0  0
    3.7858    9.8125    0.0000 C   0  0  0
    1.1912    9.8125    0.0000 C   0  0  1
   -0.1179    9.0813    0.0000 S   0  0  0
    1.1794   11.3221    0.0000 C   0  0  0
   -1.4271    9.8361    0.0000 C   0  0  0
   -2.8069    9.2346    0.0000 N   0  0  0
   -1.5922   11.3339    0.0000 N   0  0  0
   -3.8212   10.3550    0.0000 N   0  0  0
   -3.0664   11.6524    0.0000 C   0  0  0
   -0.4953   12.3482    0.0000 C   0  0  0
  1  2  1
  2  3  2
  2  4  1
  3  5  1
  4  6  2
  5  7  1
  5  8  2
  6  9  1
  7 10  2
  7 11  1
  9 12  1
  9 13  1
  9 14  1
 11 15  1
 15 16  2
 15 17  1
 16 18  1
 17 19  2
 18 20  2
 21 18  1
 21 22  1  1  0
 21 23  1
 22 24  1
 24 25  2
 24 26  1
 25 27  1
 26 28  1
 26 29  1
  6  8  1
 19 20  1
 27 28  2
M  END
> <COMPOUND_NAMES>
Example 66 (S) (Page No: 382)

> <Reference>
WO2019148005

> <IC50_range_nM>
1001-3000

> <smiles>
C[C@@H](c1cccc(c1)NC(c1cc(cc(n1)[Cl])C(F)(F)F)=O)Sc1nncn1C

$$$$
C19H20N6OS
  MOLSOFT 03092310482D

 27 30  0  0  1  0  0  0  0  0999 V2000
    0.0000   -0.0000    0.0000 S   0  0  0
   -1.3154    0.7584    0.0000 C   0  0  0
    1.2917    0.7584    0.0000 C   0  0  2
   -2.7019    0.1541    0.0000 N   0  0  0
   -1.4813    2.2634    0.0000 N   0  0  0
    2.5834    0.0237    0.0000 C   0  0  0
    1.2798    2.2753    0.0000 C   0  0  0
   -3.7210    1.2798    0.0000 N   0  0  0
   -2.9626    2.5834    0.0000 C   0  0  0
   -0.3792    3.2826    0.0000 C   0  0  0
    2.5715   -1.4695    0.0000 C   0  0  0
    3.8751    0.7821    0.0000 C   0  0  0
    3.8632   -2.2042    0.0000 C   0  0  0
    5.1668    0.0474    0.0000 C   0  0  0
    3.8514   -3.6973    0.0000 N   0  0  0
    5.1549   -1.4458    0.0000 C   0  0  0
    2.5360   -4.4321    0.0000 C   0  0  0
    1.2206   -3.6736    0.0000 O   0  0  0
    2.5241   -5.9252    0.0000 C   0  0  0
    3.8158   -6.6599    0.0000 N   0  0  0
    1.2087   -6.6599    0.0000 C   0  0  0
    3.8040   -8.1531    0.0000 C   0  0  0
    1.1969   -8.1531    0.0000 C   0  0  0
    2.4886   -8.8878    0.0000 N   0  0  0
    5.0957   -8.8878    0.0000 C   0  0  0
    6.5888   -8.8760    0.0000 C   0  0  0
    5.8304  -10.1795    0.0000 C   0  0  0
  1  2  1
  3  1  1  1  0
  2  4  2
  2  5  1
  3  6  1
  3  7  1
  4  8  1
  5  9  1
  5 10  1
  6 11  2
  6 12  1
 11 13  1
 12 14  2
 13 15  1
 13 16  2
 15 17  1
 17 18  2
 17 19  1
 19 20  2
 19 21  1
 20 22  1
 21 23  2
 22 24  2
 22 25  1
 25 26  1
 25 27  1
  8  9  2
 14 16  1
 23 24  1
 26 27  1
M  END
> <COMPOUND_NAMES>
Example 76 (S) (Page No: 386)

> <Reference>
WO2019148005

> <IC50_range_nM>
<100

> <smiles>
C[C@@H](c1cccc(c1)NC(c1ccnc(C2CC2)n1)=O)Sc1nncn1C

$$$$
C17H15F3N6OS
  MOLSOFT 03092310482D

 28 30  0  0  1  0  0  0  0  0999 V2000
    0.0000   -0.0000    0.0000 S   0  0  0
   -1.3153    0.7584    0.0000 C   0  0  0
    1.2916    0.7584    0.0000 C   0  0  2
   -2.7017    0.1540    0.0000 N   0  0  0
   -1.4812    2.2633    0.0000 N   0  0  0
    2.5832    0.0237    0.0000 C   0  0  0
    1.2798    2.2751    0.0000 C   0  0  0
   -3.7208    1.2798    0.0000 N   0  0  0
   -2.9624    2.5832    0.0000 C   0  0  0
   -0.3792    3.2823    0.0000 C   0  0  0
    2.5714   -1.4693    0.0000 C   0  0  0
    3.8748    0.7821    0.0000 C   0  0  0
    3.8630   -2.2040    0.0000 C   0  0  0
    5.1664    0.0474    0.0000 C   0  0  0
    3.8511   -3.6971    0.0000 N   0  0  0
    5.1546   -1.4456    0.0000 C   0  0  0
    2.5358   -4.4317    0.0000 C   0  0  0
    1.2205   -3.6734    0.0000 O   0  0  0
    2.5240   -5.9248    0.0000 C   0  0  0
    3.8156   -6.6595    0.0000 N   0  0  0
    1.2087   -6.6595    0.0000 C   0  0  0
    3.8037   -8.1525    0.0000 C   0  0  0
    1.1968   -8.1525    0.0000 C   0  0  0
    2.4884   -8.8872    0.0000 N   0  0  0
    5.0953   -8.8872    0.0000 C   0  0  0
    4.3369  -10.1788    0.0000 F   0  0  0
    6.3869   -9.6218    0.0000 F   0  0  0
    5.8300   -7.5719    0.0000 F   0  0  0
  1  2  1
  3  1  1  1  0
  2  4  2
  2  5  1
  3  6  1
  3  7  1
  4  8  1
  5  9  1
  5 10  1
  6 11  2
  6 12  1
 11 13  1
 12 14  2
 13 15  1
 13 16  2
 15 17  1
 17 18  2
 17 19  1
 19 20  2
 19 21  1
 20 22  1
 21 23  2
 22 24  2
 22 25  1
 25 26  1
 25 27  1
 25 28  1
  8  9  2
 14 16  1
 23 24  1
M  END
> <COMPOUND_NAMES>
Example 75 (S) (Page No: 386)

> <Reference>
WO2019148005

> <IC50_range_nM>
301-1000

> <smiles>
C[C@@H](c1cccc(c1)NC(c1ccnc(C(F)(F)F)n1)=O)Sc1nncn1C

$$$$
C19H15F6N5O2S
  MOLSOFT 03092310482D

 33 35  0  0  0  0  0  0  0  0999 V2000
    0.0000   -0.0000    0.0000 S   0  0  0
   -1.3157    0.7586    0.0000 C   0  0  0
    1.2920    0.7586    0.0000 C   0  0  3
   -2.7024    0.1541    0.0000 N   0  0  0
   -1.4816    2.2639    0.0000 N   0  0  0
    2.5839    0.0237    0.0000 C   0  0  0
    1.2801    2.2757    0.0000 C   0  0  0
   -3.7218    1.2801    0.0000 N   0  0  0
   -2.9632    2.5839    0.0000 C   0  0  0
   -0.3793    3.2832    0.0000 C   0  0  0
    2.5721   -1.4697    0.0000 C   0  0  0
    3.8759    0.7823    0.0000 C   0  0  0
    3.8640   -2.2046    0.0000 C   0  0  0
    5.1678    0.0474    0.0000 C   0  0  0
    3.8522   -3.6981    0.0000 N   0  0  0
    5.1560   -1.4460    0.0000 C   0  0  0
    2.5365   -4.4329    0.0000 C   0  0  0
    6.4479   -2.1809    0.0000 O   0  0  0
    1.2208   -3.6744    0.0000 O   0  0  0
    2.5246   -5.9264    0.0000 C   0  0  0
    7.7399   -1.4223    0.0000 C   0  0  0
    3.8166   -6.6613    0.0000 N   0  0  0
    1.2090   -6.6613    0.0000 C   0  0  0
    8.4747   -2.7143    0.0000 F   0  0  0
    9.0318   -0.6638    0.0000 F   0  0  0
    6.9813   -0.1067    0.0000 F   0  0  0
    3.8047   -8.1547    0.0000 C   0  0  0
    1.1971   -8.1547    0.0000 C   0  0  0
    2.4891   -8.8896    0.0000 C   0  0  0
    5.0967   -8.8896    0.0000 C   0  0  0
    4.3381  -10.1815    0.0000 F   0  0  0
    6.3887   -9.6245    0.0000 F   0  0  0
    5.8316   -7.5739    0.0000 F   0  0  0
  1  2  1
  3  1  1
  2  4  2
  2  5  1
  3  6  1
  3  7  1
  4  8  1
  5  9  1
  5 10  1
  6 11  2
  6 12  1
 11 13  1
 12 14  2
 13 15  1
 13 16  2
 15 17  1
 16 18  1
 17 19  2
 17 20  1
 18 21  1
 20 22  2
 20 23  1
 21 24  1
 21 25  1
 21 26  1
 22 27  1
 23 28  2
 27 29  2
 27 30  1
 30 31  1
 30 32  1
 30 33  1
  8  9  2
 14 16  1
 28 29  1
M  END
> <COMPOUND_NAMES>
Example 94 (+/-) (Page No: 394)

> <Reference>
WO2019148005

> <IC50_range_nM>
1001-3000

> <smiles>
CC(c1ccc(c(c1)NC(c1cccc(C(F)(F)F)n1)=O)OC(F)(F)F)Sc1nncn1C

$$$$
C18H19N5O2S
  MOLSOFT 03092310482D

 26 28  0  0  1  0  0  0  0  0999 V2000
    0.0000   -0.0000    0.0000 S   0  0  0
   -0.3288   -1.4563    0.0000 C   0  0  0
    1.4211    0.4698    0.0000 C   0  0  2
    0.6577   -2.5603    0.0000 N   0  0  0
   -1.7147   -2.0553    0.0000 N   0  0  0
    1.7264    1.9496    0.0000 C   0  0  0
    2.5250   -0.5168    0.0000 C   0  0  0
   -0.1057   -3.8522    0.0000 N   0  0  0
   -1.5737   -3.5351    0.0000 C   0  0  0
   -3.0301   -1.2919    0.0000 C   0  0  0
    3.1357    2.4193    0.0000 C   0  0  0
    0.5990    2.9713    0.0000 C   0  0  0
    3.4411    3.8991    0.0000 C   0  0  0
    0.9043    4.4511    0.0000 C   0  0  0
    4.8504    4.3689    0.0000 N   0  0  0
    2.3136    4.9209    0.0000 C   0  0  0
    5.1558    5.8487    0.0000 C   0  0  0
    4.0283    6.8587    0.0000 O   0  0  0
    6.5651    6.3185    0.0000 C   0  0  0
    6.8705    7.7983    0.0000 N   0  0  0
    7.6691    5.3202    0.0000 C   0  0  0
    8.2798    8.2680    0.0000 C   0  0  0
    9.0784    5.8017    0.0000 C   0  0  0
    8.5851    9.7478    0.0000 O   0  0  0
    9.3838    7.2698    0.0000 C   0  0  0
    7.4577   10.7579    0.0000 C   0  0  0
  1  2  1
  3  1  1  6  0
  2  4  2
  2  5  1
  3  6  1
  3  7  1
  4  8  1
  5  9  1
  5 10  1
  6 11  2
  6 12  1
 11 13  1
 12 14  2
 13 15  1
 13 16  2
 15 17  1
 17 18  2
 17 19  1
 19 20  2
 19 21  1
 20 22  1
 21 23  2
 22 24  1
 22 25  2
 24 26  1
  8  9  2
 14 16  1
 23 25  1
M  END
> <COMPOUND_NAMES>
Example 38 (S) (Page No: 370)

> <Reference>
WO2019148005

> <IC50_range_nM>
301-1000

> <smiles>
C[C@@H](c1cccc(c1)NC(c1cccc(n1)OC)=O)Sc1nncn1C

$$$$
C19H21N5O2S
  MOLSOFT 03092310482D

 27 29  0  0  1  0  0  0  0  0999 V2000
    0.0000   -0.0000    0.0000 S   0  0  0
   -0.3288   -1.4559    0.0000 C   0  0  0
    1.4207    0.4697    0.0000 C   0  0  2
    0.6575   -2.5596    0.0000 N   0  0  0
   -1.7142   -2.0547    0.0000 N   0  0  0
    1.7260    1.9491    0.0000 C   0  0  0
    2.5244   -0.5166    0.0000 C   0  0  0
   -0.1057   -3.8512    0.0000 N   0  0  0
   -1.5734   -3.5342    0.0000 C   0  0  0
   -3.0293   -1.2916    0.0000 C   0  0  0
    3.1350    2.4187    0.0000 C   0  0  0
    0.5988    2.9706    0.0000 C   0  0  0
    3.4402    3.8982    0.0000 C   0  0  0
    0.9041    4.4500    0.0000 C   0  0  0
    4.8492    4.3678    0.0000 N   0  0  0
    2.3131    4.9197    0.0000 C   0  0  0
    5.1545    5.8472    0.0000 C   0  0  0
    4.0273    6.8570    0.0000 O   0  0  0
    6.5635    6.3169    0.0000 C   0  0  0
    6.8687    7.7963    0.0000 N   0  0  0
    7.6671    5.3189    0.0000 C   0  0  0
    8.2777    8.2660    0.0000 C   0  0  0
    9.0761    5.8003    0.0000 C   0  0  0
    8.5830    9.7454    0.0000 O   0  0  0
    9.3814    7.2679    0.0000 C   0  0  0
    7.4558   10.7551    0.0000 C   0  0  0
    7.7611   12.2346    0.0000 C   0  0  0
  1  2  1
  3  1  1  6  0
  2  4  2
  2  5  1
  3  6  1
  3  7  1
  4  8  1
  5  9  1
  5 10  1
  6 11  2
  6 12  1
 11 13  1
 12 14  2
 13 15  1
 13 16  2
 15 17  1
 17 18  2
 17 19  1
 19 20  2
 19 21  1
 20 22  1
 21 23  2
 22 24  1
 22 25  2
 24 26  1
 26 27  1
  8  9  2
 14 16  1
 23 25  1
M  END
> <COMPOUND_NAMES>
Example 90 (S) (Page No: 392)

> <Reference>
WO2019148005

> <IC50_range_nM>
1001-3000

> <smiles>
CCOc1cccc(C(Nc2cccc(c2)[C@H](C)Sc2nncn2C)=O)n1

$$$$
C19H18F3N5O2S
  MOLSOFT 03092310482D

 30 32  0  0  1  0  0  0  0  0999 V2000
    0.0000   -0.0000    0.0000 S   0  0  0
   -0.3290   -1.4569    0.0000 C   0  0  0
    1.4217    0.4700    0.0000 C   0  0  2
    0.6580   -2.5614    0.0000 N   0  0  0
   -1.7154   -2.0562    0.0000 N   0  0  0
    1.7272    1.9504    0.0000 C   0  0  0
    2.5262   -0.5170    0.0000 C   0  0  0
   -0.1057   -3.8539    0.0000 N   0  0  0
   -1.5744   -3.5366    0.0000 C   0  0  0
   -3.0314   -1.2925    0.0000 C   0  0  0
    3.1371    2.4204    0.0000 C   0  0  0
    0.5992    2.9726    0.0000 C   0  0  0
    3.4426    3.9009    0.0000 C   0  0  0
    0.9047    4.4531    0.0000 C   0  0  0
    4.8526    4.3708    0.0000 N   0  0  0
    2.3147    4.9231    0.0000 C   0  0  0
    5.1581    5.8513    0.0000 C   0  0  0
    4.0301    6.8618    0.0000 O   0  0  0
    6.5680    6.3213    0.0000 C   0  0  0
    7.6725    5.3226    0.0000 N   0  0  0
    6.8735    7.8017    0.0000 C   0  0  0
    9.0824    5.8043    0.0000 C   0  0  0
    8.2835    8.2717    0.0000 C   0  0  0
   10.1869    4.8056    0.0000 O   0  0  0
    9.3879    7.2847    0.0000 C   0  0  0
    8.5889    9.7522    0.0000 C   0  0  0
   11.5968    5.2756    0.0000 C   0  0  0
   10.0459    9.4467    0.0000 F   0  0  0
    8.8944   11.2326    0.0000 F   0  0  0
    7.1085   10.0811    0.0000 F   0  0  0
  1  2  1
  3  1  1  6  0
  2  4  2
  2  5  1
  3  6  1
  3  7  1
  4  8  1
  5  9  1
  5 10  1
  6 11  2
  6 12  1
 11 13  1
 12 14  2
 13 15  1
 13 16  2
 15 17  1
 17 18  2
 17 19  1
 19 20  2
 19 21  1
 20 22  1
 21 23  2
 22 24  1
 22 25  2
 23 26  1
 24 27  1
 26 28  1
 26 29  1
 26 30  1
  8  9  2
 14 16  1
 23 25  1
M  END
> <COMPOUND_NAMES>
Example 73 (S) (Page No: 385)

> <Reference>
WO2019148005

> <IC50_range_nM>
1001-3000

> <smiles>
C[C@@H](c1cccc(c1)NC(c1cc(cc(n1)OC)C(F)(F)F)=O)Sc1nncn1C

$$$$
C17H17ClN6O2S
  MOLSOFT 03092310482D

 27 29  0  0  1  0  0  0  0  0999 V2000
    0.0000   -0.0000    0.0000 Cl  0  0  0
   -1.4302   -0.4455    0.0000 C   0  0  0
   -2.5556    0.5744    0.0000 C   0  0  0
   -1.7584   -1.8991    0.0000 C   0  0  0
   -2.2508    2.0515    0.0000 O   0  0  0
   -3.9858    0.1290    0.0000 N   0  0  0
   -3.1886   -2.3563    0.0000 C   0  0  0
   -3.3762    3.0597    0.0000 C   0  0  0
   -4.3140   -1.3247    0.0000 C   0  0  0
   -5.7442   -1.7701    0.0000 C   0  0  0
   -6.8696   -0.7620    0.0000 O   0  0  0
   -6.0724   -3.2238    0.0000 N   0  0  0
   -7.5026   -3.6692    0.0000 C   0  0  0
   -8.6280   -2.6494    0.0000 N   0  0  0
   -7.8308   -5.1229    0.0000 C   0  0  0
  -10.0582   -3.1065    0.0000 C   0  0  0
   -9.2610   -5.5683    0.0000 C   0  0  0
  -10.3864   -4.5602    0.0000 C   0  0  0
   -9.5893   -7.0220    0.0000 C   0  0  1
  -11.0312   -7.4674    0.0000 S   0  0  0
   -8.4873   -8.0067    0.0000 C   0  0  0
  -11.3594   -8.9211    0.0000 C   0  0  0
  -10.3747  -10.0230    0.0000 N   0  0  0
  -12.7427   -9.5189    0.0000 N   0  0  0
  -11.1367  -11.3125    0.0000 N   0  0  0
  -12.6020  -10.9960    0.0000 C   0  0  0
  -14.0556   -8.7569    0.0000 C   0  0  0
  1  2  1
  2  3  2
  2  4  1
  3  5  1
  3  6  1
  4  7  2
  5  8  1
  6  9  2
  9 10  1
 10 11  2
 10 12  1
 12 13  1
 13 14  2
 13 15  1
 14 16  1
 15 17  2
 16 18  2
 19 17  1
 19 20  1  6  0
 19 21  1
 20 22  1
 22 23  2
 22 24  1
 23 25  1
 24 26  1
 24 27  1
  7  9  1
 17 18  1
 25 26  2
M  END
> <COMPOUND_NAMES>
Example 125 (S) (Page No: 407)

> <Reference>
WO2019148005

> <IC50_range_nM>
1001-3000

> <smiles>
C[C@@H](c1ccnc(c1)NC(c1ccc(c(n1)OC)[Cl])=O)Sc1nncn1C

$$$$
C17H15F3N6O2S
  MOLSOFT 03092310482D

 29 31  0  0  1  0  0  0  0  0999 V2000
    0.0000   -0.0000    0.0000 S   0  0  0
   -1.3146    0.7580    0.0000 C   0  0  0
    1.2910    0.7580    0.0000 C   0  0  2
   -2.7003    0.1540    0.0000 N   0  0  0
   -1.4805    2.2621    0.0000 N   0  0  0
    2.5819    0.0237    0.0000 C   0  0  0
    1.2791    2.2740    0.0000 C   0  0  0
   -3.7189    1.2791    0.0000 N   0  0  0
   -2.9609    2.5819    0.0000 C   0  0  0
   -0.3790    3.2807    0.0000 C   0  0  0
    2.5701   -1.4686    0.0000 C   0  0  0
    3.8729    0.7817    0.0000 C   0  0  0
    3.8610   -2.2029    0.0000 C   0  0  0
    5.1638    0.0474    0.0000 C   0  0  0
    5.1520   -1.4449    0.0000 N   0  0  0
    3.8492   -3.6952    0.0000 N   0  0  0
    2.5345   -4.4414    0.0000 C   0  0  0
    1.2199   -3.6834    0.0000 O   0  0  0
    2.5227   -5.9337    0.0000 C   0  0  0
    3.8136   -6.6798    0.0000 N   0  0  0
    1.2080   -6.6798    0.0000 C   0  0  0
    3.8018   -8.1721    0.0000 C   0  0  0
    1.1962   -8.1721    0.0000 C   0  0  0
    5.0928   -8.9064    0.0000 O   0  0  0
    2.4872   -8.9064    0.0000 C   0  0  0
    5.0809  -10.3987    0.0000 C   0  0  0
    3.5649  -10.3869    0.0000 F   0  0  0
    5.0691  -11.8910    0.0000 F   0  0  0
    6.5732  -10.3869    0.0000 F   0  0  0
  1  2  1
  3  1  1  1  0
  2  4  2
  2  5  1
  3  6  1
  3  7  1
  4  8  1
  5  9  1
  5 10  1
  6 11  2
  6 12  1
 11 13  1
 12 14  2
 13 15  2
 13 16  1
 16 17  1
 17 18  2
 17 19  1
 19 20  2
 19 21  1
 20 22  1
 21 23  2
 22 24  1
 22 25  2
 24 26  1
 26 27  1
 26 28  1
 26 29  1
  8  9  2
 14 15  1
 23 25  1
M  END
> <COMPOUND_NAMES>
Example 122 (S) (Page No: 406)

> <Reference>
WO2019148005

> <IC50_range_nM>
1001-3000

> <smiles>
C[C@@H](c1ccnc(c1)NC(c1cccc(n1)OC(F)(F)F)=O)Sc1nncn1C

$$$$
C18H19N5O3S2
  MOLSOFT 03092310482D

 28 30  0  0  1  0  0  0  0  0999 V2000
    0.0000   -0.0000    0.0000 S   0  0  0
    1.2820   -0.7292    0.0000 O   0  0  0
    0.7292    1.3055    0.0000 O   0  0  0
   -1.3055    0.7527    0.0000 C   0  0  0
   -0.7527   -1.2820    0.0000 C   0  0  0
   -1.3173    2.2582    0.0000 N   0  0  0
   -2.6111    0.0235    0.0000 C   0  0  0
   -2.6229    3.0110    0.0000 C   0  0  0
   -3.9166    0.7763    0.0000 C   0  0  0
   -2.6346    4.5165    0.0000 C   0  0  0
   -3.9284    2.2818    0.0000 C   0  0  0
   -3.9402    5.2692    0.0000 O   0  0  0
   -1.3526    5.2692    0.0000 N   0  0  0
   -1.3644    6.7747    0.0000 C   0  0  0
   -2.6699    7.5275    0.0000 C   0  0  0
   -0.0823    7.5275    0.0000 C   0  0  0
   -2.6817    9.0330    0.0000 C   0  0  0
   -0.0941    9.0330    0.0000 C   0  0  0
   -1.3996    9.7857    0.0000 C   0  0  0
   -3.9872    9.7857    0.0000 C   0  0  1
   -5.2928    9.0565    0.0000 S   0  0  0
   -3.9990   11.2912    0.0000 C   0  0  0
   -6.5983    9.8092    0.0000 C   0  0  0
   -7.9744    9.2094    0.0000 N   0  0  0
   -6.7630   11.3030    0.0000 N   0  0  0
   -8.9859   10.3268    0.0000 N   0  0  0
   -8.2332   11.6205    0.0000 C   0  0  0
   -5.6691   12.3145    0.0000 C   0  0  0
  1  2  2
  1  3  2
  1  4  1
  1  5  1
  4  6  2
  4  7  1
  6  8  1
  7  9  2
  8 10  1
  8 11  2
 10 12  2
 10 13  1
 13 14  1
 14 15  2
 14 16  1
 15 17  1
 16 18  2
 17 19  2
 20 17  1
 20 21  1  1  0
 20 22  1
 21 23  1
 23 24  2
 23 25  1
 24 26  1
 25 27  1
 25 28  1
  9 11  1
 18 19  1
 26 27  2
M  END
> <COMPOUND_NAMES>
Example 80 (S) (Page No: 388)

> <Reference>
WO2019148005

> <IC50_range_nM>
1001-3000

> <smiles>
C[C@@H](c1cccc(c1)NC(c1cccc(n1)S(C)(=O)=O)=O)Sc1nncn1C

$$$$
C20H22N6OS
  MOLSOFT 03092310482D

 28 31  0  0  1  0  0  0  0  0999 V2000
    0.0000   -0.0000    0.0000 S   0  0  0
   -1.3140    0.7576    0.0000 C   0  0  0
    1.2903    0.7576    0.0000 C   0  0  2
   -2.6990    0.1539    0.0000 N   0  0  0
   -1.4797    2.2610    0.0000 N   0  0  0
    2.5806    0.0237    0.0000 C   0  0  0
    1.2785    2.2729    0.0000 C   0  0  0
   -3.7171    1.2785    0.0000 N   0  0  0
   -2.9595    2.5806    0.0000 C   0  0  0
   -0.3788    3.2791    0.0000 C   0  0  0
    2.5688   -1.4679    0.0000 C   0  0  0
    3.8710    0.7813    0.0000 C   0  0  0
    3.8591   -2.2018    0.0000 C   0  0  0
    5.1613    0.0474    0.0000 C   0  0  0
    3.8473   -3.6934    0.0000 N   0  0  0
    5.1495   -1.4442    0.0000 C   0  0  0
    2.5333   -4.4274    0.0000 C   0  0  0
    1.2193   -3.6697    0.0000 O   0  0  0
    2.5215   -5.9189    0.0000 C   0  0  0
    1.2075   -6.6529    0.0000 N   0  0  0
    3.8118   -6.6529    0.0000 C   0  0  0
    1.1956   -8.1444    0.0000 C   0  0  0
    3.7999   -8.1444    0.0000 N   0  0  0
    2.4859   -8.8784    0.0000 C   0  0  0
   -0.1184   -8.8784    0.0000 C   0  0  0
    2.4741  -10.3699    0.0000 C   0  0  0
   -0.8760  -10.1687    0.0000 C   0  0  0
   -1.6336   -8.8665    0.0000 C   0  0  0
  1  2  1
  3  1  1  1  0
  2  4  2
  2  5  1
  3  6  1
  3  7  1
  4  8  1
  5  9  1
  5 10  1
  6 11  2
  6 12  1
 11 13  1
 12 14  2
 13 15  1
 13 16  2
 15 17  1
 17 18  2
 17 19  1
 19 20  2
 19 21  1
 20 22  1
 21 23  2
 22 24  2
 22 25  1
 24 26  1
 25 27  1
 25 28  1
  8  9  2
 14 16  1
 23 24  1
 27 28  1
M  END
> <COMPOUND_NAMES>
Example 70 (S) (Page No: 384)

> <Reference>
WO2019148005

> <IC50_range_nM>
101-300

> <smiles>
Cc1c(C2CC2)nc(cn1)C(Nc1cccc(c1)[C@H](C)Sc1nncn1C)=O

$$$$
C17H15F3N6OS
  MOLSOFT 03092310482D

 28 30  0  0  1  0  0  0  0  0999 V2000
    0.0000   -0.0000    0.0000 S   0  0  0
   -1.3153    0.7584    0.0000 C   0  0  0
    1.2916    0.7584    0.0000 C   0  0  2
   -2.7017    0.1540    0.0000 N   0  0  0
   -1.4812    2.2633    0.0000 N   0  0  0
    2.5832    0.0237    0.0000 C   0  0  0
    1.2798    2.2751    0.0000 C   0  0  0
   -3.7208    1.2798    0.0000 N   0  0  0
   -2.9624    2.5832    0.0000 C   0  0  0
   -0.3792    3.2823    0.0000 C   0  0  0
    2.5714   -1.4693    0.0000 C   0  0  0
    3.8748    0.7821    0.0000 C   0  0  0
    3.8630   -2.2040    0.0000 C   0  0  0
    5.1664    0.0474    0.0000 C   0  0  0
    3.8511   -3.6971    0.0000 N   0  0  0
    5.1546   -1.4456    0.0000 C   0  0  0
    2.5358   -4.4317    0.0000 C   0  0  0
    1.2205   -3.6734    0.0000 O   0  0  0
    2.5240   -5.9248    0.0000 C   0  0  0
    3.8156   -6.6595    0.0000 N   0  0  0
    1.2087   -6.6595    0.0000 C   0  0  0
    3.8037   -8.1525    0.0000 C   0  0  0
    1.1968   -8.1525    0.0000 N   0  0  0
    2.4884   -8.8872    0.0000 C   0  0  0
    5.0953   -8.8872    0.0000 C   0  0  0
    4.3369  -10.1788    0.0000 F   0  0  0
    6.3869   -9.6218    0.0000 F   0  0  0
    5.8300   -7.5719    0.0000 F   0  0  0
  1  2  1
  3  1  1  1  0
  2  4  2
  2  5  1
  3  6  1
  3  7  1
  4  8  1
  5  9  1
  5 10  1
  6 11  2
  6 12  1
 11 13  1
 12 14  2
 13 15  1
 13 16  2
 15 17  1
 17 18  2
 17 19  1
 19 20  2
 19 21  1
 20 22  1
 21 23  2
 22 24  2
 22 25  1
 25 26  1
 25 27  1
 25 28  1
  8  9  2
 14 16  1
 23 24  1
M  END
> <COMPOUND_NAMES>
Example 77 (S) (Page No: 387)

> <Reference>
WO2019148005

> <IC50_range_nM>
301-1000

> <smiles>
C[C@@H](c1cccc(c1)NC(c1cncc(C(F)(F)F)n1)=O)Sc1nncn1C

$$$$
C17H18N6OS
  MOLSOFT 03092310482D

 25 27  0  0  1  0  0  0  0  0999 V2000
    0.0000   -0.0000    0.0000 S   0  0  0
   -1.3146    0.7580    0.0000 C   0  0  0
    1.2909    0.7580    0.0000 C   0  0  2
   -2.7003    0.1540    0.0000 N   0  0  0
   -1.4804    2.2621    0.0000 N   0  0  0
    2.5818    0.0237    0.0000 C   0  0  0
    1.2791    2.2739    0.0000 C   0  0  0
   -3.7188    1.2791    0.0000 N   0  0  0
   -2.9608    2.5818    0.0000 C   0  0  0
   -0.3790    3.2806    0.0000 C   0  0  0
    2.5700   -1.4686    0.0000 C   0  0  0
    3.8728    0.7817    0.0000 C   0  0  0
    3.8609   -2.2029    0.0000 C   0  0  0
    5.1637    0.0474    0.0000 C   0  0  0
    3.8491   -3.6951    0.0000 N   0  0  0
    5.1518   -1.4449    0.0000 C   0  0  0
    2.5345   -4.4294    0.0000 C   0  0  0
    1.2199   -3.6714    0.0000 O   0  0  0
    2.5226   -5.9216    0.0000 C   0  0  0
    3.8135   -6.6678    0.0000 N   0  0  0
    1.2080   -6.6678    0.0000 C   0  0  0
    3.8017   -8.1600    0.0000 C   0  0  0
    1.1962   -8.1600    0.0000 N   0  0  0
    2.4871   -8.8943    0.0000 C   0  0  0
    5.0926   -8.8943    0.0000 C   0  0  0
  1  2  1
  3  1  1  1  0
  2  4  2
  2  5  1
  3  6  1
  3  7  1
  4  8  1
  5  9  1
  5 10  1
  6 11  2
  6 12  1
 11 13  1
 12 14  2
 13 15  1
 13 16  2
 15 17  1
 17 18  2
 17 19  1
 19 20  2
 19 21  1
 20 22  1
 21 23  2
 22 24  2
 22 25  1
  8  9  2
 14 16  1
 23 24  1
M  END
> <COMPOUND_NAMES>
Example 82 (S) (Page No: 389)

> <Reference>
WO2019148005

> <IC50_range_nM>
1001-3000

> <smiles>
Cc1cncc(C(Nc2cccc(c2)[C@H](C)Sc2nncn2C)=O)n1

$$$$
C22H24N6O3S
  MOLSOFT 03092310482D

 32 35  0  0  1  0  0  0  0  0999 V2000
    0.0000   -0.0000    0.0000 S   0  0  0
   -1.3137    0.7693    0.0000 C   0  0  0
    1.2901    0.7693    0.0000 C   0  0  2
   -2.6985    0.1657    0.0000 N   0  0  0
   -1.4794    2.2724    0.0000 N   0  0  0
    2.5801    0.0237    0.0000 C   0  0  0
    1.2782    2.2843    0.0000 C   0  0  0
   -3.7164    1.2901    0.0000 N   0  0  0
   -2.9589    2.5920    0.0000 C   0  0  0
   -0.3787    3.2903    0.0000 C   0  0  0
    2.5683   -1.4676    0.0000 C   0  0  0
    3.8702    0.7930    0.0000 C   0  0  0
    3.8584   -2.2014    0.0000 C   0  0  0
    5.1603    0.0473    0.0000 C   0  0  0
    3.8465   -3.6927    0.0000 N   0  0  0
    5.1484   -1.4439    0.0000 C   0  0  0
    2.5328   -4.4383    0.0000 C   0  0  0
    1.2191   -3.6690    0.0000 O   0  0  0
    2.5210   -5.9296    0.0000 C   0  0  0
    1.2072   -6.6634    0.0000 N   0  0  0
    3.8110   -6.6634    0.0000 C   0  0  0
    1.1954   -8.1547    0.0000 C   0  0  0
    3.7992   -8.1547    0.0000 C   0  0  0
    2.4855   -8.8885    0.0000 C   0  0  0
    5.0893   -8.8885    0.0000 C   0  0  0
    6.3793   -8.1310    0.0000 O   0  0  0
    5.0774  -10.3797    0.0000 N   0  0  0
    3.8465  -11.2556    0.0000 C   0  0  0
    6.2847  -11.2556    0.0000 C   0  0  0
    4.2963  -12.6758    0.0000 C   0  0  2
    5.8112  -12.6758    0.0000 C   0  0  0
    3.3968  -13.8831    0.0000 O   0  0  0
  1  2  1
  3  1  1  1  0
  2  4  2
  2  5  1
  3  6  1
  3  7  1
  4  8  1
  5  9  1
  5 10  1
  6 11  2
  6 12  1
 11 13  1
 12 14  2
 13 15  1
 13 16  2
 15 17  1
 17 18  2
 17 19  1
 19 20  2
 19 21  1
 20 22  1
 21 23  2
 22 24  2
 23 25  1
 25 26  2
 25 27  1
 27 28  1
 27 29  1
 30 28  1
 29 31  1
 30 32  1  6  0
  8  9  2
 14 16  1
 23 24  1
 30 31  1
M  END
> <COMPOUND_NAMES>
Example 140 (Stereo) (Page No: 413)

> <Reference>
WO2019148005

> <IC50_range_nM>
101-300

> <smiles>
C[C@@H](c1cccc(c1)NC(c1cc(ccn1)C(N1CC[C@@H](C1)O)=O)=O)Sc1nncn1C

$$$$
C22H24N6O3S
  MOLSOFT 03092310482D

 32 35  0  0  1  0  0  0  0  0999 V2000
    0.0000   -0.0000    0.0000 S   0  0  0
   -1.3137    0.7693    0.0000 C   0  0  0
    1.2901    0.7693    0.0000 C   0  0  1
   -2.6985    0.1657    0.0000 N   0  0  0
   -1.4794    2.2724    0.0000 N   0  0  0
    2.5801    0.0237    0.0000 C   0  0  0
    1.2782    2.2843    0.0000 C   0  0  0
   -3.7164    1.2901    0.0000 N   0  0  0
   -2.9589    2.5920    0.0000 C   0  0  0
   -0.3787    3.2903    0.0000 C   0  0  0
    2.5683   -1.4676    0.0000 C   0  0  0
    3.8702    0.7930    0.0000 C   0  0  0
    3.8584   -2.2014    0.0000 C   0  0  0
    5.1603    0.0473    0.0000 C   0  0  0
    3.8465   -3.6927    0.0000 N   0  0  0
    5.1484   -1.4439    0.0000 C   0  0  0
    2.5328   -4.4383    0.0000 C   0  0  0
    1.2191   -3.6690    0.0000 O   0  0  0
    2.5210   -5.9296    0.0000 C   0  0  0
    1.2072   -6.6634    0.0000 N   0  0  0
    3.8110   -6.6634    0.0000 C   0  0  0
    1.1954   -8.1547    0.0000 C   0  0  0
    3.7992   -8.1547    0.0000 C   0  0  0
    2.4855   -8.8885    0.0000 C   0  0  0
    5.0893   -8.8885    0.0000 C   0  0  0
    6.3793   -8.1310    0.0000 O   0  0  0
    5.0774  -10.3797    0.0000 N   0  0  0
    3.8465  -11.2556    0.0000 C   0  0  0
    6.2847  -11.2556    0.0000 C   0  0  0
    4.2963  -12.6758    0.0000 C   0  0  2
    5.8112  -12.6758    0.0000 C   0  0  0
    3.3968  -13.8831    0.0000 O   0  0  0
  1  2  1
  3  1  1  6  0
  2  4  2
  2  5  1
  3  6  1
  3  7  1
  4  8  1
  5  9  1
  5 10  1
  6 11  2
  6 12  1
 11 13  1
 12 14  2
 13 15  1
 13 16  2
 15 17  1
 17 18  2
 17 19  1
 19 20  2
 19 21  1
 20 22  1
 21 23  2
 22 24  2
 23 25  1
 25 26  2
 25 27  1
 27 28  1
 27 29  1
 30 28  1
 29 31  1
 30 32  1  6  0
  8  9  2
 14 16  1
 23 24  1
 30 31  1
M  END
> <COMPOUND_NAMES>
Example 139 (Stereo) (Page No: 413)

> <Reference>
WO2019148005

> <IC50_range_nM>
3001-10000

> <smiles>
C[C@H](c1cccc(c1)NC(c1cc(ccn1)C(N1CC[C@@H](C1)O)=O)=O)Sc1nncn1C

$$$$
C22H24N6O3S
  MOLSOFT 03092310482D

 32 35  0  0  1  0  0  0  0  0999 V2000
    0.0000   -0.0000    0.0000 S   0  0  0
   -1.3137    0.7693    0.0000 C   0  0  0
    1.2901    0.7693    0.0000 C   0  0  1
   -2.6985    0.1657    0.0000 N   0  0  0
   -1.4794    2.2724    0.0000 N   0  0  0
    2.5801    0.0237    0.0000 C   0  0  0
    1.2782    2.2843    0.0000 C   0  0  0
   -3.7164    1.2901    0.0000 N   0  0  0
   -2.9589    2.5920    0.0000 C   0  0  0
   -0.3787    3.2903    0.0000 C   0  0  0
    2.5683   -1.4676    0.0000 C   0  0  0
    3.8702    0.7930    0.0000 C   0  0  0
    3.8584   -2.2014    0.0000 C   0  0  0
    5.1603    0.0473    0.0000 C   0  0  0
    3.8465   -3.6927    0.0000 N   0  0  0
    5.1484   -1.4439    0.0000 C   0  0  0
    2.5328   -4.4383    0.0000 C   0  0  0
    1.2191   -3.6690    0.0000 O   0  0  0
    2.5210   -5.9296    0.0000 C   0  0  0
    1.2072   -6.6634    0.0000 N   0  0  0
    3.8110   -6.6634    0.0000 C   0  0  0
    1.1954   -8.1547    0.0000 C   0  0  0
    3.7992   -8.1547    0.0000 C   0  0  0
    2.4855   -8.8885    0.0000 C   0  0  0
    5.0893   -8.8885    0.0000 C   0  0  0
    6.3793   -8.1310    0.0000 O   0  0  0
    5.0774  -10.3797    0.0000 N   0  0  0
    3.8465  -11.2556    0.0000 C   0  0  0
    6.2847  -11.2556    0.0000 C   0  0  0
    4.2963  -12.6758    0.0000 C   0  0  2
    5.8112  -12.6758    0.0000 C   0  0  0
    3.3968  -13.8831    0.0000 O   0  0  0
  1  2  1
  3  1  1  6  0
  2  4  2
  2  5  1
  3  6  1
  3  7  1
  4  8  1
  5  9  1
  5 10  1
  6 11  2
  6 12  1
 11 13  1
 12 14  2
 13 15  1
 13 16  2
 15 17  1
 17 18  2
 17 19  1
 19 20  2
 19 21  1
 20 22  1
 21 23  2
 22 24  2
 23 25  1
 25 26  2
 25 27  1
 27 28  1
 27 29  1
 30 28  1
 29 31  1
 30 32  1  6  0
  8  9  2
 14 16  1
 23 24  1
 30 31  1
M  END
> <COMPOUND_NAMES>
Example 161 (Stereo) (Page No: 421)

> <Reference>
WO2019148005

> <IC50_range_nM>
3001-10000

> <smiles>
C[C@H](c1cccc(c1)NC(c1cc(ccn1)C(N1CC[C@@H](C1)O)=O)=O)Sc1nncn1C

$$$$
C22H24N6O4S
  MOLSOFT 03092310482D

 33 36  0  0  1  0  0  0  0  0999 V2000
    0.0000   -0.0000    0.0000 S   0  0  0
   -1.3139    0.7694    0.0000 C   0  0  0
    1.2903    0.7694    0.0000 C   0  0  2
   -2.6989    0.1657    0.0000 N   0  0  0
   -1.4797    2.2728    0.0000 N   0  0  0
    2.5806    0.0237    0.0000 C   0  0  0
    1.2784    2.2846    0.0000 C   0  0  0
   -3.7169    1.2903    0.0000 N   0  0  0
   -2.9593    2.5924    0.0000 C   0  0  0
   -0.3788    3.2908    0.0000 C   0  0  0
    2.5687   -1.4678    0.0000 C   0  0  0
    3.8708    0.7931    0.0000 C   0  0  0
    3.8590   -2.2018    0.0000 C   0  0  0
    5.1611    0.0473    0.0000 C   0  0  0
    3.8472   -3.6933    0.0000 N   0  0  0
    5.1493   -1.4442    0.0000 C   0  0  0
    2.5332   -4.4390    0.0000 C   0  0  0
    1.2193   -3.6696    0.0000 O   0  0  0
    2.5214   -5.9305    0.0000 C   0  0  0
    1.2074   -6.6644    0.0000 N   0  0  0
    3.8116   -6.6644    0.0000 C   0  0  0
    1.1956   -8.1560    0.0000 C   0  0  0
    3.7998   -8.1560    0.0000 C   0  0  0
    2.4859   -8.8899    0.0000 C   0  0  0
    5.0901   -8.8899    0.0000 C   0  0  0
    6.3804   -8.1323    0.0000 O   0  0  0
    5.0782  -10.3814    0.0000 N   0  0  0
    6.2857  -11.2574    0.0000 C   0  0  0
    3.8472  -11.2574    0.0000 C   0  0  0
    5.8122  -12.6778    0.0000 C   0  0  1
    4.2970  -12.6778    0.0000 C   0  0  1
    6.6881  -13.8853    0.0000 O   0  0  0
    3.3973  -13.8853    0.0000 O   0  0  0
  1  2  1
  3  1  1  1  0
  2  4  2
  2  5  1
  3  6  1
  3  7  1
  4  8  1
  5  9  1
  5 10  1
  6 11  2
  6 12  1
 11 13  1
 12 14  2
 13 15  1
 13 16  2
 15 17  1
 17 18  2
 17 19  1
 19 20  2
 19 21  1
 20 22  1
 21 23  2
 22 24  2
 23 25  1
 25 26  2
 25 27  1
 27 28  1
 27 29  1
 30 28  1
 31 29  1
 30 32  1  6  0
 31 33  1  1  0
  8  9  2
 14 16  1
 23 24  1
 30 31  1
M  END
> <COMPOUND_NAMES>
Example 155 (Stereo) (Page No: 419)

> <Reference>
WO2019148005

> <IC50_range_nM>
1001-3000

> <smiles>
C[C@@H](c1cccc(c1)NC(c1cc(ccn1)C(N1C[C@@H]([C@H](C1)O)O)=O)=O)Sc1nncn1C

$$$$
C23H26N6O3S
  MOLSOFT 03092310482D

 33 36  0  0  1  0  0  0  0  0999 V2000
    0.0000   -0.0000    0.0000 S   0  0  0
   -1.3136    0.7692    0.0000 C   0  0  0
    1.2899    0.7692    0.0000 C   0  0  1
   -2.6982    0.1657    0.0000 N   0  0  0
   -1.4793    2.2722    0.0000 N   0  0  0
    2.5799    0.0237    0.0000 C   0  0  0
    1.2781    2.2840    0.0000 C   0  0  0
   -3.7160    1.2899    0.0000 N   0  0  0
   -2.9586    2.5917    0.0000 C   0  0  0
   -0.3787    3.2899    0.0000 C   0  0  0
    2.5680   -1.4675    0.0000 C   0  0  0
    3.8698    0.7929    0.0000 C   0  0  0
    3.8580   -2.2012    0.0000 C   0  0  0
    5.1598    0.0473    0.0000 C   0  0  0
    3.8461   -3.6923    0.0000 N   0  0  0
    5.1479   -1.4438    0.0000 C   0  0  0
    2.5325   -4.4379    0.0000 C   0  0  0
    1.2189   -3.6686    0.0000 O   0  0  0
    2.5207   -5.9290    0.0000 C   0  0  0
    1.2071   -6.6627    0.0000 N   0  0  0
    3.8106   -6.6627    0.0000 C   0  0  0
    1.1953   -8.1538    0.0000 C   0  0  0
    3.7988   -8.1538    0.0000 C   0  0  0
    2.4852   -8.8876    0.0000 C   0  0  0
    5.0887   -8.8876    0.0000 C   0  0  0
    6.3787   -8.1302    0.0000 O   0  0  0
    5.0769  -10.3787    0.0000 N   0  0  0
    3.8461  -11.2544    0.0000 C   0  0  1
    6.2840  -11.2544    0.0000 C   0  0  0
    4.2959  -12.6745    0.0000 C   0  0  0
    2.4024  -10.7810    0.0000 C   0  0  0
    5.8106  -12.6745    0.0000 C   0  0  2
    6.6864  -13.8816    0.0000 O   0  0  0
  1  2  1
  3  1  1  6  0
  2  4  2
  2  5  1
  3  6  1
  3  7  1
  4  8  1
  5  9  1
  5 10  1
  6 11  2
  6 12  1
 11 13  1
 12 14  2
 13 15  1
 13 16  2
 15 17  1
 17 18  2
 17 19  1
 19 20  2
 19 21  1
 20 22  1
 21 23  2
 22 24  2
 23 25  1
 25 26  2
 25 27  1
 28 27  1
 27 29  1
 28 30  1
 28 31  1  1  0
 32 29  1
 32 33  1  1  0
  8  9  2
 14 16  1
 23 24  1
 32 30  1
M  END
> <COMPOUND_NAMES>
Example 151 (Stereo) (Page No: 417)

> <Reference>
WO2019148005

> <IC50_range_nM>
301-1000

> <smiles>
C[C@@H]1C[C@@H](CN1C(c1ccnc(c1)C(Nc1cccc(c1)[C@@H](C)Sc1nncn1C)=O)=O)O

$$$$
C23H26N6O3S
  MOLSOFT 03092310482D

 33 36  0  0  1  0  0  0  0  0999 V2000
    0.0000   -0.0000    0.0000 S   0  0  0
   -1.3136    0.7692    0.0000 C   0  0  0
    1.2899    0.7692    0.0000 C   0  0  1
   -2.6982    0.1657    0.0000 N   0  0  0
   -1.4793    2.2722    0.0000 N   0  0  0
    2.5799    0.0237    0.0000 C   0  0  0
    1.2781    2.2840    0.0000 C   0  0  0
   -3.7160    1.2899    0.0000 N   0  0  0
   -2.9586    2.5917    0.0000 C   0  0  0
   -0.3787    3.2899    0.0000 C   0  0  0
    2.5680   -1.4675    0.0000 C   0  0  0
    3.8698    0.7929    0.0000 C   0  0  0
    3.8580   -2.2012    0.0000 C   0  0  0
    5.1598    0.0473    0.0000 C   0  0  0
    3.8461   -3.6923    0.0000 N   0  0  0
    5.1479   -1.4438    0.0000 C   0  0  0
    2.5325   -4.4379    0.0000 C   0  0  0
    1.2189   -3.6686    0.0000 O   0  0  0
    2.5207   -5.9290    0.0000 C   0  0  0
    1.2071   -6.6627    0.0000 N   0  0  0
    3.8106   -6.6627    0.0000 C   0  0  0
    1.1953   -8.1538    0.0000 C   0  0  0
    3.7988   -8.1538    0.0000 C   0  0  0
    2.4852   -8.8876    0.0000 C   0  0  0
    5.0887   -8.8876    0.0000 C   0  0  0
    6.3787   -8.1302    0.0000 O   0  0  0
    5.0769  -10.3787    0.0000 N   0  0  0
    3.8461  -11.2544    0.0000 C   0  0  2
    6.2840  -11.2544    0.0000 C   0  0  0
    4.2959  -12.6745    0.0000 C   0  0  0
    2.4024  -10.7810    0.0000 C   0  0  0
    5.8106  -12.6745    0.0000 C   0  0  2
    6.6864  -13.8816    0.0000 O   0  0  0
  1  2  1
  3  1  1  6  0
  2  4  2
  2  5  1
  3  6  1
  3  7  1
  4  8  1
  5  9  1
  5 10  1
  6 11  2
  6 12  1
 11 13  1
 12 14  2
 13 15  1
 13 16  2
 15 17  1
 17 18  2
 17 19  1
 19 20  2
 19 21  1
 20 22  1
 21 23  2
 22 24  2
 23 25  1
 25 26  2
 25 27  1
 28 27  1
 27 29  1
 28 30  1
 28 31  1  6  0
 32 29  1
 32 33  1  1  0
  8  9  2
 14 16  1
 23 24  1
 32 30  1
M  END
> <COMPOUND_NAMES>
Example 153 (Stereo) (Page No: 418)

> <Reference>
WO2019148005

> <IC50_range_nM>
3001-10000

> <smiles>
C[C@H]1C[C@@H](CN1C(c1ccnc(c1)C(Nc1cccc(c1)[C@@H](C)Sc1nncn1C)=O)=O)O

$$$$
C23H26N6O3S
  MOLSOFT 03092310482D

 33 36  0  0  1  0  0  0  0  0999 V2000
    0.0000   -0.0000    0.0000 S   0  0  0
   -1.3136    0.7692    0.0000 C   0  0  0
    1.2899    0.7692    0.0000 C   0  0  2
   -2.6982    0.1657    0.0000 N   0  0  0
   -1.4793    2.2722    0.0000 N   0  0  0
    2.5799    0.0237    0.0000 C   0  0  0
    1.2781    2.2840    0.0000 C   0  0  0
   -3.7160    1.2899    0.0000 N   0  0  0
   -2.9586    2.5917    0.0000 C   0  0  0
   -0.3787    3.2899    0.0000 C   0  0  0
    2.5680   -1.4675    0.0000 C   0  0  0
    3.8698    0.7929    0.0000 C   0  0  0
    3.8580   -2.2012    0.0000 C   0  0  0
    5.1598    0.0473    0.0000 C   0  0  0
    3.8461   -3.6923    0.0000 N   0  0  0
    5.1479   -1.4438    0.0000 C   0  0  0
    2.5325   -4.4379    0.0000 C   0  0  0
    1.2189   -3.6686    0.0000 O   0  0  0
    2.5207   -5.9290    0.0000 C   0  0  0
    1.2071   -6.6627    0.0000 N   0  0  0
    3.8106   -6.6627    0.0000 C   0  0  0
    1.1953   -8.1538    0.0000 C   0  0  0
    3.7988   -8.1538    0.0000 C   0  0  0
    2.4852   -8.8876    0.0000 C   0  0  0
    5.0887   -8.8876    0.0000 C   0  0  0
    6.3787   -8.1302    0.0000 O   0  0  0
    5.0769  -10.3787    0.0000 N   0  0  0
    3.8461  -11.2544    0.0000 C   0  0  1
    6.2840  -11.2544    0.0000 C   0  0  0
    4.2959  -12.6745    0.0000 C   0  0  0
    2.4024  -10.7810    0.0000 C   0  0  0
    5.8106  -12.6745    0.0000 C   0  0  2
    6.6864  -13.8816    0.0000 O   0  0  0
  1  2  1
  3  1  1  1  0
  2  4  2
  2  5  1
  3  6  1
  3  7  1
  4  8  1
  5  9  1
  5 10  1
  6 11  2
  6 12  1
 11 13  1
 12 14  2
 13 15  1
 13 16  2
 15 17  1
 17 18  2
 17 19  1
 19 20  2
 19 21  1
 20 22  1
 21 23  2
 22 24  2
 23 25  1
 25 26  2
 25 27  1
 28 27  1
 27 29  1
 28 30  1
 28 31  1  1  0
 32 29  1
 32 33  1  1  0
  8  9  2
 14 16  1
 23 24  1
 32 30  1
M  END
> <COMPOUND_NAMES>
Example 152 (Stereo) (Page No: 418)

> <Reference>
WO2019148005

> <IC50_range_nM>
3001-10000

> <smiles>
C[C@@H](c1cccc(c1)NC(c1cc(ccn1)C(N1C[C@H](C[C@H]1C)O)=O)=O)Sc1nncn1C

$$$$
C23H26N6O3S
  MOLSOFT 03092310482D

 33 36  0  0  1  0  0  0  0  0999 V2000
    0.0000   -0.0000    0.0000 S   0  0  0
   -1.3136    0.7692    0.0000 C   0  0  0
    1.2899    0.7692    0.0000 C   0  0  2
   -2.6982    0.1657    0.0000 N   0  0  0
   -1.4793    2.2722    0.0000 N   0  0  0
    2.5799    0.0237    0.0000 C   0  0  0
    1.2781    2.2840    0.0000 C   0  0  0
   -3.7160    1.2899    0.0000 N   0  0  0
   -2.9586    2.5917    0.0000 C   0  0  0
   -0.3787    3.2899    0.0000 C   0  0  0
    2.5680   -1.4675    0.0000 C   0  0  0
    3.8698    0.7929    0.0000 C   0  0  0
    3.8580   -2.2012    0.0000 C   0  0  0
    5.1598    0.0473    0.0000 C   0  0  0
    3.8461   -3.6923    0.0000 N   0  0  0
    5.1479   -1.4438    0.0000 C   0  0  0
    2.5325   -4.4379    0.0000 C   0  0  0
    1.2189   -3.6686    0.0000 O   0  0  0
    2.5207   -5.9290    0.0000 C   0  0  0
    1.2071   -6.6627    0.0000 N   0  0  0
    3.8106   -6.6627    0.0000 C   0  0  0
    1.1953   -8.1538    0.0000 C   0  0  0
    3.7988   -8.1538    0.0000 C   0  0  0
    2.4852   -8.8876    0.0000 C   0  0  0
    5.0887   -8.8876    0.0000 C   0  0  0
    6.3787   -8.1302    0.0000 O   0  0  0
    5.0769  -10.3787    0.0000 N   0  0  0
    3.8461  -11.2544    0.0000 C   0  0  2
    6.2840  -11.2544    0.0000 C   0  0  0
    4.2959  -12.6745    0.0000 C   0  0  0
    2.4024  -10.7810    0.0000 C   0  0  0
    5.8106  -12.6745    0.0000 C   0  0  2
    6.6864  -13.8816    0.0000 O   0  0  0
  1  2  1
  3  1  1  1  0
  2  4  2
  2  5  1
  3  6  1
  3  7  1
  4  8  1
  5  9  1
  5 10  1
  6 11  2
  6 12  1
 11 13  1
 12 14  2
 13 15  1
 13 16  2
 15 17  1
 17 18  2
 17 19  1
 19 20  2
 19 21  1
 20 22  1
 21 23  2
 22 24  2
 23 25  1
 25 26  2
 25 27  1
 28 27  1
 27 29  1
 28 30  1
 28 31  1  6  0
 32 29  1
 32 33  1  1  0
  8  9  2
 14 16  1
 23 24  1
 32 30  1
M  END
> <COMPOUND_NAMES>
Example 154 (Stereo) (Page No: 418)

> <Reference>
WO2019148005

> <IC50_range_nM>
3001-10000

> <smiles>
C[C@H]1C[C@@H](CN1C(c1ccnc(c1)C(Nc1cccc(c1)[C@H](C)Sc1nncn1C)=O)=O)O

$$$$
C23H26N6O3S
  MOLSOFT 03092310482D

 33 36  0  0  1  0  0  0  0  0999 V2000
    0.0000   -0.0000    0.0000 S   0  0  0
   -1.3155    0.7585    0.0000 C   0  0  0
    1.2918    0.7585    0.0000 C   0  0  1
   -2.7022    0.1541    0.0000 N   0  0  0
   -1.4815    2.2637    0.0000 N   0  0  0
    2.5837    0.0237    0.0000 C   0  0  0
    1.2800    2.2755    0.0000 C   0  0  0
   -3.7214    1.2800    0.0000 N   0  0  0
   -2.9629    2.5837    0.0000 C   0  0  0
   -0.3793    3.2829    0.0000 C   0  0  0
    2.5718   -1.4696    0.0000 C   0  0  0
    3.8755    0.7822    0.0000 C   0  0  0
    3.8637   -2.2163    0.0000 C   0  0  0
    5.1673    0.0474    0.0000 C   0  0  0
    3.8518   -3.7096    0.0000 N   0  0  0
    5.1555   -1.4459    0.0000 C   0  0  0
    2.5363   -4.4444    0.0000 C   0  0  0
    1.2207   -3.6859    0.0000 O   0  0  0
    2.5244   -5.9377    0.0000 C   0  0  0
    1.2089   -6.6725    0.0000 N   0  0  0
    3.8162   -6.6725    0.0000 C   0  0  0
    1.1970   -8.1658    0.0000 C   0  0  0
    3.8044   -8.1658    0.0000 C   0  0  0
    2.4889   -8.9006    0.0000 C   0  0  0
    5.0962   -8.9006    0.0000 C   0  0  0
    6.3881   -8.1421    0.0000 O   0  0  0
    5.0844  -10.3939    0.0000 N   0  0  0
    3.7688  -11.1287    0.0000 C   0  0  0
    6.3762  -11.1287    0.0000 C   0  0  0
    3.7570  -12.6221    0.0000 C   0  0  1
    6.3644  -12.6221    0.0000 C   0  0  0
    2.4414  -13.3569    0.0000 O   0  0  0
    5.0488  -13.3569    0.0000 C   0  0  0
  1  2  1
  3  1  1  6  0
  2  4  2
  2  5  1
  3  6  1
  3  7  1
  4  8  1
  5  9  1
  5 10  1
  6 11  2
  6 12  1
 11 13  1
 12 14  2
 13 15  1
 13 16  2
 15 17  1
 17 18  2
 17 19  1
 19 20  2
 19 21  1
 20 22  1
 21 23  2
 22 24  2
 23 25  1
 25 26  2
 25 27  1
 27 28  1
 27 29  1
 30 28  1
 29 31  1
 30 32  1  6  0
 30 33  1
  8  9  2
 14 16  1
 23 24  1
 31 33  1
M  END
> <COMPOUND_NAMES>
Example 149 (Stereo) (Page No: 417)

> <Reference>
WO2019148005

> <IC50_range_nM>
3001-10000

> <smiles>
C[C@H](c1cccc(c1)NC(c1cc(ccn1)C(N1CCC[C@@H](C1)O)=O)=O)Sc1nncn1C

$$$$
C23H26N6O3S
  MOLSOFT 03092310482D

 33 36  0  0  1  0  0  0  0  0999 V2000
    0.0000   -0.0000    0.0000 S   0  0  0
   -1.3155    0.7585    0.0000 C   0  0  0
    1.2918    0.7585    0.0000 C   0  0  2
   -2.7022    0.1541    0.0000 N   0  0  0
   -1.4815    2.2637    0.0000 N   0  0  0
    2.5837    0.0237    0.0000 C   0  0  0
    1.2800    2.2755    0.0000 C   0  0  0
   -3.7214    1.2800    0.0000 N   0  0  0
   -2.9629    2.5837    0.0000 C   0  0  0
   -0.3793    3.2829    0.0000 C   0  0  0
    2.5718   -1.4696    0.0000 C   0  0  0
    3.8755    0.7822    0.0000 C   0  0  0
    3.8637   -2.2163    0.0000 C   0  0  0
    5.1673    0.0474    0.0000 C   0  0  0
    3.8518   -3.7096    0.0000 N   0  0  0
    5.1555   -1.4459    0.0000 C   0  0  0
    2.5363   -4.4444    0.0000 C   0  0  0
    1.2207   -3.6859    0.0000 O   0  0  0
    2.5244   -5.9377    0.0000 C   0  0  0
    1.2089   -6.6725    0.0000 N   0  0  0
    3.8162   -6.6725    0.0000 C   0  0  0
    1.1970   -8.1658    0.0000 C   0  0  0
    3.8044   -8.1658    0.0000 C   0  0  0
    2.4889   -8.9006    0.0000 C   0  0  0
    5.0962   -8.9006    0.0000 C   0  0  0
    6.3881   -8.1421    0.0000 O   0  0  0
    5.0844  -10.3939    0.0000 N   0  0  0
    3.7688  -11.1287    0.0000 C   0  0  0
    6.3762  -11.1287    0.0000 C   0  0  0
    3.7570  -12.6221    0.0000 C   0  0  1
    6.3644  -12.6221    0.0000 C   0  0  0
    2.4414  -13.3569    0.0000 O   0  0  0
    5.0488  -13.3569    0.0000 C   0  0  0
  1  2  1
  3  1  1  1  0
  2  4  2
  2  5  1
  3  6  1
  3  7  1
  4  8  1
  5  9  1
  5 10  1
  6 11  2
  6 12  1
 11 13  1
 12 14  2
 13 15  1
 13 16  2
 15 17  1
 17 18  2
 17 19  1
 19 20  2
 19 21  1
 20 22  1
 21 23  2
 22 24  2
 23 25  1
 25 26  2
 25 27  1
 27 28  1
 27 29  1
 30 28  1
 29 31  1
 30 32  1  6  0
 30 33  1
  8  9  2
 14 16  1
 23 24  1
 31 33  1
M  END
> <COMPOUND_NAMES>
Example 150 (Stereo) (Page No: 417)

> <Reference>
WO2019148005

> <IC50_range_nM>
3001-10000

> <smiles>
C[C@@H](c1cccc(c1)NC(c1cc(ccn1)C(N1CCC[C@@H](C1)O)=O)=O)Sc1nncn1C

$$$$
C23H26N6O3S
  MOLSOFT 03092310482D

 33 36  0  0  1  0  0  0  0  0999 V2000
    0.0000   -0.0000    0.0000 S   0  0  0
   -0.3288   -1.4560    0.0000 C   0  0  0
    1.4091    0.4697    0.0000 C   0  0  1
    0.6576   -2.5598    0.0000 N   0  0  0
   -1.7144   -2.0549    0.0000 N   0  0  0
    1.7144    1.9492    0.0000 C   0  0  0
    2.5129   -0.5167    0.0000 C   0  0  0
   -0.1057   -3.8515    0.0000 N   0  0  0
   -1.5735   -3.5344    0.0000 C   0  0  0
   -3.0295   -1.2917    0.0000 C   0  0  0
    3.1235    2.4189    0.0000 C   0  0  0
    0.5871    2.9591    0.0000 C   0  0  0
    3.4288    3.8985    0.0000 C   0  0  0
    0.8924    4.4386    0.0000 C   0  0  0
    4.8378    4.3681    0.0000 N   0  0  0
    2.3015    4.9083    0.0000 C   0  0  0
    5.1431    5.8477    0.0000 C   0  0  0
    4.0159    6.8575    0.0000 O   0  0  0
    6.5522    6.3174    0.0000 C   0  0  0
    7.6560    5.3310    0.0000 N   0  0  0
    6.8575    7.7969    0.0000 C   0  0  0
    9.0651    5.8124    0.0000 C   0  0  0
    8.2666    8.2666    0.0000 C   0  0  0
    9.3704    7.2920    0.0000 C   0  0  0
    8.5719    9.7461    0.0000 C   0  0  0
    9.9810   10.2158    0.0000 O   0  0  0
    7.4446   10.7560    0.0000 N   0  0  0
    5.9651   10.4507    0.0000 C   0  0  0
    7.5855   12.2590    0.0000 C   0  0  0
    5.2018   11.7541    0.0000 C   0  0  2
    6.1999   12.8813    0.0000 C   0  0  0
    3.6988   11.9185    0.0000 O   0  0  0
    2.8064   10.7207    0.0000 C   0  0  0
  1  2  1
  3  1  1  1  0
  2  4  2
  2  5  1
  3  6  1
  3  7  1
  4  8  1
  5  9  1
  5 10  1
  6 11  2
  6 12  1
 11 13  1
 12 14  2
 13 15  1
 13 16  2
 15 17  1
 17 18  2
 17 19  1
 19 20  2
 19 21  1
 20 22  1
 21 23  2
 22 24  2
 23 25  1
 25 26  2
 25 27  1
 27 28  1
 27 29  1
 30 28  1
 29 31  1
 30 32  1  1  0
 32 33  1
  8  9  2
 14 16  1
 23 24  1
 30 31  1
M  END
> <COMPOUND_NAMES>
Example 141 (Stereo) (Page No: 414)

> <Reference>
WO2019148005

> <IC50_range_nM>
3001-10000

> <smiles>
C[C@H](c1cccc(c1)NC(c1cc(ccn1)C(N1CC[C@@H](C1)OC)=O)=O)Sc1nncn1C

$$$$
C21H22N6O3S
  MOLSOFT 03092310482D

 31 34  0  0  1  0  0  0  0  0999 V2000
    0.0000   -0.0000    0.0000 S   0  0  0
   -1.3155    0.7585    0.0000 C   0  0  0
    1.2918    0.7585    0.0000 C   0  0  2
   -2.7021    0.1541    0.0000 N   0  0  0
   -1.4814    2.2636    0.0000 N   0  0  0
    2.5836    0.0237    0.0000 C   0  0  0
    1.2799    2.2754    0.0000 C   0  0  0
   -3.7213    1.2799    0.0000 N   0  0  0
   -2.9628    2.5836    0.0000 C   0  0  0
   -0.3792    3.2828    0.0000 C   0  0  0
    2.5717   -1.4695    0.0000 C   0  0  0
    3.8753    0.7822    0.0000 C   0  0  0
    3.8635   -2.2043    0.0000 C   0  0  0
    5.1671    0.0474    0.0000 C   0  0  0
    3.8516   -3.6976    0.0000 N   0  0  0
    5.1552   -1.4458    0.0000 C   0  0  0
    2.5361   -4.4323    0.0000 C   0  0  0
    1.2207   -3.6739    0.0000 O   0  0  0
    2.5243   -5.9256    0.0000 C   0  0  0
    1.2088   -6.6603    0.0000 N   0  0  0
    3.8161   -6.6603    0.0000 C   0  0  0
    1.1970   -8.1536    0.0000 C   0  0  0
    3.8042   -8.1536    0.0000 C   0  0  0
    2.4887   -8.8884    0.0000 C   0  0  0
    5.0960   -8.8884    0.0000 C   0  0  0
    6.3878   -8.1299    0.0000 O   0  0  0
    5.0841  -10.3816    0.0000 N   0  0  0
    6.1389  -11.4364    0.0000 C   0  0  0
    4.0057  -11.4364    0.0000 C   0  0  0
    5.0604  -12.4911    0.0000 C   0  0  0
    5.0486  -13.9844    0.0000 O   0  0  0
  1  2  1
  3  1  1  1  0
  2  4  2
  2  5  1
  3  6  1
  3  7  1
  4  8  1
  5  9  1
  5 10  1
  6 11  2
  6 12  1
 11 13  1
 12 14  2
 13 15  1
 13 16  2
 15 17  1
 17 18  2
 17 19  1
 19 20  2
 19 21  1
 20 22  1
 21 23  2
 22 24  2
 23 25  1
 25 26  2
 25 27  1
 27 28  1
 27 29  1
 28 30  1
 30 31  1
  8  9  2
 14 16  1
 23 24  1
 29 30  1
M  END
> <COMPOUND_NAMES>
Example 148 (S) (Page No: 416)

> <Reference>
WO2019148005

> <IC50_range_nM>
301-1000

> <smiles>
C[C@@H](c1cccc(c1)NC(c1cc(ccn1)C(N1CC(C1)O)=O)=O)Sc1nncn1C

$$$$
C23H26N6O3S
  MOLSOFT 03092310482D

 33 36  0  0  1  0  0  0  0  0999 V2000
    0.0000   -0.0000    0.0000 S   0  0  0
   -1.3154    0.7703    0.0000 C   0  0  0
    1.2917    0.7703    0.0000 C   0  0  2
   -2.7020    0.1659    0.0000 N   0  0  0
   -1.4813    2.2753    0.0000 N   0  0  0
    2.5835    0.0237    0.0000 C   0  0  0
    1.2799    2.2872    0.0000 C   0  0  0
   -3.7211    1.2917    0.0000 N   0  0  0
   -2.9627    2.5953    0.0000 C   0  0  0
   -0.3792    3.2945    0.0000 C   0  0  0
    2.5716   -1.4695    0.0000 C   0  0  0
    3.8752    0.7940    0.0000 C   0  0  0
    3.8633   -2.2042    0.0000 C   0  0  0
    5.1669    0.0474    0.0000 C   0  0  0
    3.8515   -3.6974    0.0000 N   0  0  0
    5.1551   -1.4458    0.0000 C   0  0  0
    2.5361   -4.4322    0.0000 C   0  0  0
    1.2206   -3.6737    0.0000 O   0  0  0
    2.5242   -5.9254    0.0000 C   0  0  0
    1.2088   -6.6601    0.0000 N   0  0  0
    3.8159   -6.6601    0.0000 C   0  0  0
    1.1969   -8.1533    0.0000 C   0  0  0
    3.8041   -8.1533    0.0000 C   0  0  0
    2.4887   -8.8880    0.0000 C   0  0  0
    5.0958   -8.8880    0.0000 C   0  0  0
    6.3875   -8.1296    0.0000 O   0  0  0
    5.0840  -10.3812    0.0000 N   0  0  0
    6.3757  -11.1160    0.0000 C   0  0  0
    3.7685  -11.1160    0.0000 C   0  0  0
    6.3638  -12.6092    0.0000 C   0  0  0
    3.7567  -12.6092    0.0000 C   0  0  0
    5.0484  -13.3439    0.0000 C   0  0  0
    5.0366  -14.8371    0.0000 O   0  0  0
  1  2  1
  3  1  1  1  0
  2  4  2
  2  5  1
  3  6  1
  3  7  1
  4  8  1
  5  9  1
  5 10  1
  6 11  2
  6 12  1
 11 13  1
 12 14  2
 13 15  1
 13 16  2
 15 17  1
 17 18  2
 17 19  1
 19 20  2
 19 21  1
 20 22  1
 21 23  2
 22 24  2
 23 25  1
 25 26  2
 25 27  1
 27 28  1
 27 29  1
 28 30  1
 29 31  1
 30 32  1
 32 33  1
  8  9  2
 14 16  1
 23 24  1
 31 32  1
M  END
> <COMPOUND_NAMES>
Example 145 (S) (Page No: 415)

> <Reference>
WO2019148005

> <IC50_range_nM>
1001-3000

> <smiles>
C[C@@H](c1cccc(c1)NC(c1cc(ccn1)C(N1CCC(CC1)O)=O)=O)Sc1nncn1C

$$$$
C21H22N6O2S
  MOLSOFT 03092310482D

 30 33  0  0  1  0  0  0  0  0999 V2000
    0.0000   -0.0000    0.0000 S   0  0  0
   -1.3150    0.7582    0.0000 C   0  0  0
    1.2913    0.7582    0.0000 C   0  0  2
   -2.7010    0.1540    0.0000 N   0  0  0
   -1.4808    2.2627    0.0000 N   0  0  0
    2.5826    0.0237    0.0000 C   0  0  0
    1.2794    2.2746    0.0000 C   0  0  0
   -3.7199    1.2794    0.0000 N   0  0  0
   -2.9617    2.5826    0.0000 C   0  0  0
   -0.3791    3.2815    0.0000 C   0  0  0
    2.5707   -1.4690    0.0000 C   0  0  0
    3.8739    0.7819    0.0000 C   0  0  0
    3.8620   -2.2153    0.0000 C   0  0  0
    5.1652    0.0474    0.0000 C   0  0  0
    3.8502   -3.7080    0.0000 N   0  0  0
    5.1533   -1.4453    0.0000 C   0  0  0
    2.5352   -4.4425    0.0000 C   0  0  0
    1.2202   -3.6843    0.0000 O   0  0  0
    2.5233   -5.9352    0.0000 C   0  0  0
    1.2084   -6.6697    0.0000 N   0  0  0
    3.8146   -6.6697    0.0000 C   0  0  0
    1.1965   -8.1624    0.0000 C   0  0  0
    3.8028   -8.1624    0.0000 C   0  0  0
    2.4878   -8.8969    0.0000 C   0  0  0
    5.0941   -8.8969    0.0000 C   0  0  0
    6.3854   -8.1387    0.0000 O   0  0  0
    5.0822  -10.3895    0.0000 N   0  0  0
    6.1366  -11.4439    0.0000 C   0  0  0
    4.0042  -11.4439    0.0000 C   0  0  0
    5.0585  -12.4983    0.0000 C   0  0  0
  1  2  1
  3  1  1  1  0
  2  4  2
  2  5  1
  3  6  1
  3  7  1
  4  8  1
  5  9  1
  5 10  1
  6 11  2
  6 12  1
 11 13  1
 12 14  2
 13 15  1
 13 16  2
 15 17  1
 17 18  2
 17 19  1
 19 20  2
 19 21  1
 20 22  1
 21 23  2
 22 24  2
 23 25  1
 25 26  2
 25 27  1
 27 28  1
 27 29  1
 28 30  1
  8  9  2
 14 16  1
 23 24  1
 29 30  1
M  END
> <COMPOUND_NAMES>
Example 143 (S) (Page No: 415)

> <Reference>
WO2019148005

> <IC50_range_nM>
3001-10000

> <smiles>
C[C@@H](c1cccc(c1)NC(c1cc(ccn1)C(N1CCC1)=O)=O)Sc1nncn1C

$$$$
C22H24N6O2S
  MOLSOFT 03092310482D

 31 34  0  0  1  0  0  0  0  0999 V2000
    0.0000   -0.0000    0.0000 S   0  0  0
   -1.3146    0.7580    0.0000 C   0  0  0
    1.2910    0.7580    0.0000 C   0  0  2
   -2.7004    0.1540    0.0000 N   0  0  0
   -1.4805    2.2621    0.0000 N   0  0  0
    2.5819    0.0237    0.0000 C   0  0  0
    1.2791    2.2740    0.0000 C   0  0  0
   -3.7189    1.2791    0.0000 N   0  0  0
   -2.9609    2.5819    0.0000 C   0  0  0
   -0.3790    3.2807    0.0000 C   0  0  0
    2.5701   -1.4686    0.0000 C   0  0  0
    3.8729    0.7817    0.0000 C   0  0  0
    3.8610   -2.2148    0.0000 C   0  0  0
    5.1638    0.0474    0.0000 C   0  0  0
    3.8492   -3.7071    0.0000 N   0  0  0
    5.1520   -1.4449    0.0000 C   0  0  0
    2.5345   -4.4414    0.0000 C   0  0  0
    1.2199   -3.6834    0.0000 O   0  0  0
    2.5227   -5.9337    0.0000 C   0  0  0
    1.2081   -6.6680    0.0000 N   0  0  0
    3.8137   -6.6680    0.0000 C   0  0  0
    1.1962   -8.1603    0.0000 C   0  0  0
    3.8018   -8.1603    0.0000 C   0  0  0
    2.4872   -8.8946    0.0000 C   0  0  0
    5.0928   -8.8946    0.0000 C   0  0  0
    6.3837   -8.1366    0.0000 O   0  0  0
    5.0809  -10.3869    0.0000 N   0  0  0
    6.2890  -11.2633    0.0000 C   0  0  0
    3.8492  -11.2633    0.0000 C   0  0  0
    5.8152  -12.6846    0.0000 C   0  0  0
    4.2993  -12.6846    0.0000 C   0  0  0
  1  2  1
  3  1  1  1  0
  2  4  2
  2  5  1
  3  6  1
  3  7  1
  4  8  1
  5  9  1
  5 10  1
  6 11  2
  6 12  1
 11 13  1
 12 14  2
 13 15  1
 13 16  2
 15 17  1
 17 18  2
 17 19  1
 19 20  2
 19 21  1
 20 22  1
 21 23  2
 22 24  2
 23 25  1
 25 26  2
 25 27  1
 27 28  1
 27 29  1
 28 30  1
 29 31  1
  8  9  2
 14 16  1
 23 24  1
 30 31  1
M  END
> <COMPOUND_NAMES>
Example 138 (S) (Page No: 412)

> <Reference>
WO2019148005

> <IC50_range_nM>
3001-10000

> <smiles>
C[C@@H](c1cccc(c1)NC(c1cc(ccn1)C(N1CCCC1)=O)=O)Sc1nncn1C

$$$$
C23H26N6O2S
  MOLSOFT 03092310482D

 32 35  0  0  1  0  0  0  0  0999 V2000
    0.0000   -0.0000    0.0000 S   0  0  0
   -1.3157    0.7586    0.0000 C   0  0  0
    1.2920    0.7586    0.0000 C   0  0  2
   -2.7025    0.1541    0.0000 N   0  0  0
   -1.4817    2.2640    0.0000 N   0  0  0
    2.5840    0.0237    0.0000 C   0  0  0
    1.2801    2.2758    0.0000 C   0  0  0
   -3.7219    1.2801    0.0000 N   0  0  0
   -2.9633    2.5840    0.0000 C   0  0  0
   -0.3793    3.2833    0.0000 C   0  0  0
    2.5722   -1.4698    0.0000 C   0  0  0
    3.8760    0.7823    0.0000 C   0  0  0
    3.8642   -2.2166    0.0000 C   0  0  0
    5.1680    0.0474    0.0000 C   0  0  0
    3.8523   -3.7101    0.0000 N   0  0  0
    5.1562   -1.4461    0.0000 C   0  0  0
    2.5366   -4.4450    0.0000 C   0  0  0
    1.2209   -3.6864    0.0000 O   0  0  0
    2.5247   -5.9385    0.0000 C   0  0  0
    1.2090   -6.6734    0.0000 N   0  0  0
    3.8167   -6.6734    0.0000 C   0  0  0
    1.1972   -8.1669    0.0000 C   0  0  0
    3.8049   -8.1669    0.0000 C   0  0  0
    2.4892   -8.9018    0.0000 C   0  0  0
    5.0969   -8.9018    0.0000 C   0  0  0
    6.3889   -8.1432    0.0000 O   0  0  0
    5.0850  -10.3953    0.0000 N   0  0  0
    6.3770  -11.1302    0.0000 C   0  0  0
    3.7693  -11.1302    0.0000 C   0  0  0
    6.3652  -12.6237    0.0000 C   0  0  0
    3.7575  -12.6237    0.0000 C   0  0  0
    5.0495  -13.3586    0.0000 C   0  0  0
  1  2  1
  3  1  1  1  0
  2  4  2
  2  5  1
  3  6  1
  3  7  1
  4  8  1
  5  9  1
  5 10  1
  6 11  2
  6 12  1
 11 13  1
 12 14  2
 13 15  1
 13 16  2
 15 17  1
 17 18  2
 17 19  1
 19 20  2
 19 21  1
 20 22  1
 21 23  2
 22 24  2
 23 25  1
 25 26  2
 25 27  1
 27 28  1
 27 29  1
 28 30  1
 29 31  1
 30 32  1
  8  9  2
 14 16  1
 23 24  1
 31 32  1
M  END
> <COMPOUND_NAMES>
Example 144 (S) (Page No: 415)

> <Reference>
WO2019148005

> <IC50_range_nM>
3001-10000

> <smiles>
C[C@@H](c1cccc(c1)NC(c1cc(ccn1)C(N1CCCCC1)=O)=O)Sc1nncn1C

$$$$
C23H26N6O2S
  MOLSOFT 03092310482D

 32 35  0  0  1  0  0  0  0  0999 V2000
    0.0000   -0.0000    0.0000 S   0  0  0
   -1.3141    0.7577    0.0000 C   0  0  0
    1.2905    0.7577    0.0000 C   0  0  1
   -2.6993    0.1539    0.0000 N   0  0  0
   -1.4799    2.2613    0.0000 N   0  0  0
    2.5809    0.0237    0.0000 C   0  0  0
    1.2786    2.2731    0.0000 C   0  0  0
   -3.7175    1.2786    0.0000 N   0  0  0
   -2.9598    2.5809    0.0000 C   0  0  0
   -0.3788    3.2794    0.0000 C   0  0  0
    2.5691   -1.4680    0.0000 C   0  0  0
    3.8714    0.7814    0.0000 C   0  0  0
    3.8595   -2.2139    0.0000 C   0  0  0
    5.1618    0.0474    0.0000 C   0  0  0
    3.8477   -3.7056    0.0000 N   0  0  0
    5.1500   -1.4444    0.0000 C   0  0  0
    2.5336   -4.4396    0.0000 C   0  0  0
    1.2194   -3.6819    0.0000 O   0  0  0
    2.5217   -5.9313    0.0000 C   0  0  0
    1.2076   -6.6654    0.0000 N   0  0  0
    3.8122   -6.6654    0.0000 C   0  0  0
    1.1957   -8.1571    0.0000 C   0  0  0
    3.8003   -8.1571    0.0000 C   0  0  0
    2.4862   -8.8911    0.0000 C   0  0  0
    5.0908   -8.8911    0.0000 C   0  0  0
    6.3812   -8.1334    0.0000 O   0  0  0
    5.0789  -10.3828    0.0000 N   0  0  0
    3.8477  -11.2589    0.0000 C   0  0  2
    6.2865  -11.2589    0.0000 C   0  0  0
    4.2976  -12.6796    0.0000 C   0  0  0
    2.4033  -10.7853    0.0000 C   0  0  0
    5.8130  -12.6796    0.0000 C   0  0  0
  1  2  1
  3  1  1  6  0
  2  4  2
  2  5  1
  3  6  1
  3  7  1
  4  8  1
  5  9  1
  5 10  1
  6 11  2
  6 12  1
 11 13  1
 12 14  2
 13 15  1
 13 16  2
 15 17  1
 17 18  2
 17 19  1
 19 20  2
 19 21  1
 20 22  1
 21 23  2
 22 24  2
 23 25  1
 25 26  2
 25 27  1
 28 27  1
 27 29  1
 28 30  1
 28 31  1  6  0
 29 32  1
  8  9  2
 14 16  1
 23 24  1
 30 32  1
M  END
> <COMPOUND_NAMES>
Example 142 (Stereo) (Page No: 414)

> <Reference>
WO2019148005

> <IC50_range_nM>
>10000

> <smiles>
C[C@H]1CCCN1C(c1ccnc(c1)C(Nc1cccc(c1)[C@@H](C)Sc1nncn1C)=O)=O

$$$$
C22H25N7O2S
  MOLSOFT 03092310482D

 32 35  0  0  1  0  0  0  0  0999 V2000
    0.0000   -0.0000    0.0000 S   0  0  0
   -1.3137    0.7693    0.0000 C   0  0  0
    1.2901    0.7693    0.0000 C   0  0  1
   -2.6985    0.1657    0.0000 N   0  0  0
   -1.4794    2.2724    0.0000 N   0  0  0
    2.5801    0.0237    0.0000 C   0  0  0
    1.2782    2.2843    0.0000 C   0  0  0
   -3.7164    1.2901    0.0000 N   0  0  0
   -2.9589    2.5920    0.0000 C   0  0  0
   -0.3787    3.2903    0.0000 C   0  0  0
    2.5683   -1.4676    0.0000 C   0  0  0
    3.8702    0.7930    0.0000 C   0  0  0
    3.8584   -2.2014    0.0000 C   0  0  0
    5.1603    0.0473    0.0000 C   0  0  0
    3.8465   -3.6927    0.0000 N   0  0  0
    5.1484   -1.4439    0.0000 C   0  0  0
    2.5328   -4.4383    0.0000 C   0  0  0
    1.2191   -3.6690    0.0000 O   0  0  0
    2.5210   -5.9296    0.0000 C   0  0  0
    1.2072   -6.6634    0.0000 N   0  0  0
    3.8110   -6.6634    0.0000 C   0  0  0
    1.1954   -8.1547    0.0000 C   0  0  0
    3.7992   -8.1547    0.0000 C   0  0  0
    2.4855   -8.8885    0.0000 C   0  0  0
    5.0893   -8.8885    0.0000 C   0  0  0
    6.3793   -8.1310    0.0000 O   0  0  0
    5.0774  -10.3797    0.0000 N   0  0  0
    3.8465  -11.2556    0.0000 C   0  0  0
    6.2847  -11.2556    0.0000 C   0  0  0
    4.2963  -12.6758    0.0000 C   0  0  2
    5.8112  -12.6758    0.0000 C   0  0  0
    3.3968  -13.8831    0.0000 N   0  0  0
  1  2  1
  3  1  1  6  0
  2  4  2
  2  5  1
  3  6  1
  3  7  1
  4  8  1
  5  9  1
  5 10  1
  6 11  2
  6 12  1
 11 13  1
 12 14  2
 13 15  1
 13 16  2
 15 17  1
 17 18  2
 17 19  1
 19 20  2
 19 21  1
 20 22  1
 21 23  2
 22 24  2
 23 25  1
 25 26  2
 25 27  1
 27 28  1
 27 29  1
 30 28  1
 29 31  1
 30 32  1  6  0
  8  9  2
 14 16  1
 23 24  1
 30 31  1
M  END
> <COMPOUND_NAMES>
Example 146 (Stereo) (Page No: 416)

> <Reference>
WO2019148005

> <IC50_range_nM>
3001-10000

> <smiles>
C[C@H](c1cccc(c1)NC(c1cc(ccn1)C(N1CC[C@@H](C1)N)=O)=O)Sc1nncn1C

$$$$
C22H25N7O2S
  MOLSOFT 03092310482D

 32 35  0  0  1  0  0  0  0  0999 V2000
    0.0000   -0.0000    0.0000 S   0  0  0
   -1.3137    0.7693    0.0000 C   0  0  0
    1.2901    0.7693    0.0000 C   0  0  2
   -2.6985    0.1657    0.0000 N   0  0  0
   -1.4794    2.2724    0.0000 N   0  0  0
    2.5801    0.0237    0.0000 C   0  0  0
    1.2782    2.2843    0.0000 C   0  0  0
   -3.7164    1.2901    0.0000 N   0  0  0
   -2.9589    2.5920    0.0000 C   0  0  0
   -0.3787    3.2903    0.0000 C   0  0  0
    2.5683   -1.4676    0.0000 C   0  0  0
    3.8702    0.7930    0.0000 C   0  0  0
    3.8584   -2.2014    0.0000 C   0  0  0
    5.1603    0.0473    0.0000 C   0  0  0
    3.8465   -3.6927    0.0000 N   0  0  0
    5.1484   -1.4439    0.0000 C   0  0  0
    2.5328   -4.4383    0.0000 C   0  0  0
    1.2191   -3.6690    0.0000 O   0  0  0
    2.5210   -5.9296    0.0000 C   0  0  0
    1.2072   -6.6634    0.0000 N   0  0  0
    3.8110   -6.6634    0.0000 C   0  0  0
    1.1954   -8.1547    0.0000 C   0  0  0
    3.7992   -8.1547    0.0000 C   0  0  0
    2.4855   -8.8885    0.0000 C   0  0  0
    5.0893   -8.8885    0.0000 C   0  0  0
    6.3793   -8.1310    0.0000 O   0  0  0
    5.0774  -10.3797    0.0000 N   0  0  0
    3.8465  -11.2556    0.0000 C   0  0  0
    6.2847  -11.2556    0.0000 C   0  0  0
    4.2963  -12.6758    0.0000 C   0  0  2
    5.8112  -12.6758    0.0000 C   0  0  0
    3.3968  -13.8831    0.0000 N   0  0  0
  1  2  1
  3  1  1  1  0
  2  4  2
  2  5  1
  3  6  1
  3  7  1
  4  8  1
  5  9  1
  5 10  1
  6 11  2
  6 12  1
 11 13  1
 12 14  2
 13 15  1
 13 16  2
 15 17  1
 17 18  2
 17 19  1
 19 20  2
 19 21  1
 20 22  1
 21 23  2
 22 24  2
 23 25  1
 25 26  2
 25 27  1
 27 28  1
 27 29  1
 30 28  1
 29 31  1
 30 32  1  6  0
  8  9  2
 14 16  1
 23 24  1
 30 31  1
M  END
> <COMPOUND_NAMES>
Example 147 (Stereo) (Page No: 416)

> <Reference>
WO2019148005

> <IC50_range_nM>
3001-10000

> <smiles>
C[C@@H](c1cccc(c1)NC(c1cc(ccn1)C(N1CC[C@@H](C1)N)=O)=O)Sc1nncn1C

$$$$
C24H29N7O2S
  MOLSOFT 03092310482D

 34 37  0  0  1  0  0  0  0  0999 V2000
    0.0000   -0.0000    0.0000 S   0  0  0
   -1.3144    0.7579    0.0000 C   0  0  0
    1.2907    0.7579    0.0000 C   0  0  1
   -2.6999    0.1539    0.0000 N   0  0  0
   -1.4802    2.2618    0.0000 N   0  0  0
    2.5815    0.0237    0.0000 C   0  0  0
    1.2789    2.2736    0.0000 C   0  0  0
   -3.7183    1.2789    0.0000 N   0  0  0
   -2.9604    2.5815    0.0000 C   0  0  0
   -0.3789    3.2801    0.0000 C   0  0  0
    2.5696   -1.4684    0.0000 C   0  0  0
    3.8722    0.7815    0.0000 C   0  0  0
    3.8604   -2.2025    0.0000 C   0  0  0
    5.1629    0.0474    0.0000 C   0  0  0
    3.8485   -3.6946    0.0000 N   0  0  0
    5.1511   -1.4447    0.0000 C   0  0  0
    2.5341   -4.4406    0.0000 C   0  0  0
    1.2197   -3.6709    0.0000 O   0  0  0
    2.5223   -5.9327    0.0000 C   0  0  0
    1.2078   -6.6668    0.0000 N   0  0  0
    3.8130   -6.6668    0.0000 C   0  0  0
    1.1960   -8.1589    0.0000 C   0  0  0
    3.8012   -8.1589    0.0000 C   0  0  0
    2.4867   -8.8931    0.0000 C   0  0  0
    5.0919   -8.8931    0.0000 C   0  0  0
    6.3826   -8.1352    0.0000 O   0  0  0
    5.0801  -10.3851    0.0000 N   0  0  0
    3.8485  -11.2614    0.0000 C   0  0  0
    6.2879  -11.2614    0.0000 C   0  0  0
    4.2985  -12.6824    0.0000 C   0  0  2
    5.8142  -12.6824    0.0000 C   0  0  0
    3.3985  -13.8902    0.0000 N   0  0  0
    1.8947  -13.7244    0.0000 C   0  0  0
    4.0025  -15.2520    0.0000 C   0  0  0
  1  2  1
  3  1  1  6  0
  2  4  2
  2  5  1
  3  6  1
  3  7  1
  4  8  1
  5  9  1
  5 10  1
  6 11  2
  6 12  1
 11 13  1
 12 14  2
 13 15  1
 13 16  2
 15 17  1
 17 18  2
 17 19  1
 19 20  2
 19 21  1
 20 22  1
 21 23  2
 22 24  2
 23 25  1
 25 26  2
 25 27  1
 27 28  1
 27 29  1
 30 28  1
 29 31  1
 30 32  1  6  0
 32 33  1
 32 34  1
  8  9  2
 14 16  1
 23 24  1
 30 31  1
M  END
> <COMPOUND_NAMES>
Example 159 (Stereo) (Page No: 420)

> <Reference>
WO2019148005

> <IC50_range_nM>
3001-10000

> <smiles>
C[C@H](c1cccc(c1)NC(c1cc(ccn1)C(N1CC[C@@H](C1)N(C)C)=O)=O)Sc1nncn1C

$$$$
C24H29N7O2S
  MOLSOFT 03092310482D

 34 37  0  0  1  0  0  0  0  0999 V2000
    0.0000   -0.0000    0.0000 S   0  0  0
   -1.3144    0.7579    0.0000 C   0  0  0
    1.2907    0.7579    0.0000 C   0  0  2
   -2.6999    0.1539    0.0000 N   0  0  0
   -1.4802    2.2618    0.0000 N   0  0  0
    2.5815    0.0237    0.0000 C   0  0  0
    1.2789    2.2736    0.0000 C   0  0  0
   -3.7183    1.2789    0.0000 N   0  0  0
   -2.9604    2.5815    0.0000 C   0  0  0
   -0.3789    3.2801    0.0000 C   0  0  0
    2.5696   -1.4684    0.0000 C   0  0  0
    3.8722    0.7815    0.0000 C   0  0  0
    3.8604   -2.2025    0.0000 C   0  0  0
    5.1629    0.0474    0.0000 C   0  0  0
    3.8485   -3.6946    0.0000 N   0  0  0
    5.1511   -1.4447    0.0000 C   0  0  0
    2.5341   -4.4406    0.0000 C   0  0  0
    1.2197   -3.6709    0.0000 O   0  0  0
    2.5223   -5.9327    0.0000 C   0  0  0
    1.2078   -6.6668    0.0000 N   0  0  0
    3.8130   -6.6668    0.0000 C   0  0  0
    1.1960   -8.1589    0.0000 C   0  0  0
    3.8012   -8.1589    0.0000 C   0  0  0
    2.4867   -8.8931    0.0000 C   0  0  0
    5.0919   -8.8931    0.0000 C   0  0  0
    6.3826   -8.1352    0.0000 O   0  0  0
    5.0801  -10.3851    0.0000 N   0  0  0
    3.8485  -11.2614    0.0000 C   0  0  0
    6.2879  -11.2614    0.0000 C   0  0  0
    4.2985  -12.6824    0.0000 C   0  0  2
    5.8142  -12.6824    0.0000 C   0  0  0
    3.3985  -13.8902    0.0000 N   0  0  0
    1.8947  -13.7244    0.0000 C   0  0  0
    4.0025  -15.2520    0.0000 C   0  0  0
  1  2  1
  3  1  1  1  0
  2  4  2
  2  5  1
  3  6  1
  3  7  1
  4  8  1
  5  9  1
  5 10  1
  6 11  2
  6 12  1
 11 13  1
 12 14  2
 13 15  1
 13 16  2
 15 17  1
 17 18  2
 17 19  1
 19 20  2
 19 21  1
 20 22  1
 21 23  2
 22 24  2
 23 25  1
 25 26  2
 25 27  1
 27 28  1
 27 29  1
 30 28  1
 29 31  1
 30 32  1  6  0
 32 33  1
 32 34  1
  8  9  2
 14 16  1
 23 24  1
 30 31  1
M  END
> <COMPOUND_NAMES>
Example 160 (Stereo) (Page No: 420)

> <Reference>
WO2019148005

> <IC50_range_nM>
3001-10000

> <smiles>
C[C@@H](c1cccc(c1)NC(c1cc(ccn1)C(N1CC[C@@H](C1)N(C)C)=O)=O)Sc1nncn1C

$$$$
C23H26N6O4S2
  MOLSOFT 03092310482D

 35 38  0  0  1  0  0  0  0  0999 V2000
    0.0000   -0.0000    0.0000 S   0  0  0
   -0.8929   -1.1984    0.0000 O   0  0  0
    1.1984   -0.8694    0.0000 O   0  0  0
    0.8694    1.2219    0.0000 C   0  0  3
   -1.2219    0.8929    0.0000 C   0  0  0
    0.3995    2.6552    0.0000 C   0  0  0
    2.3497    1.2336    0.0000 C   0  0  0
    1.5978    3.5481    0.0000 N   0  0  0
    2.7962    2.6670    0.0000 C   0  0  0
    1.5861    5.0519    0.0000 C   0  0  0
    2.8667    5.8038    0.0000 O   0  0  0
    0.2820    5.8038    0.0000 C   0  0  0
    0.2702    7.3077    0.0000 C   0  0  0
   -1.0221    5.0754    0.0000 C   0  0  0
   -1.0339    8.0713    0.0000 C   0  0  0
   -2.3262    5.8273    0.0000 C   0  0  0
   -2.3380    7.3312    0.0000 N   0  0  0
   -1.0456    9.5752    0.0000 C   0  0  0
   -2.3497   10.3271    0.0000 O   0  0  0
    0.2350   10.3271    0.0000 N   0  0  0
    0.2232   11.8309    0.0000 C   0  0  0
   -1.0809   12.5946    0.0000 C   0  0  0
    1.5038   12.5946    0.0000 C   0  0  0
   -1.0926   14.0984    0.0000 C   0  0  0
    1.4921   14.0984    0.0000 C   0  0  0
    0.1880   14.8621    0.0000 C   0  0  0
   -2.3967   14.8621    0.0000 C   0  0  1
   -3.7008   14.1219    0.0000 S   0  0  0
   -2.4085   16.3659    0.0000 C   0  0  0
   -5.0049   14.8856    0.0000 C   0  0  0
   -6.3795   14.2864    0.0000 N   0  0  0
   -5.1694   16.3777    0.0000 N   0  0  0
   -7.3899   15.4025    0.0000 N   0  0  0
   -6.6380   16.6949    0.0000 C   0  0  0
   -4.0768   17.3880    0.0000 C   0  0  0
  1  2  2
  1  3  2
  4  1  1
  1  5  1
  4  6  1
  4  7  1
  6  8  1
  7  9  1
  8 10  1
 10 11  2
 10 12  1
 12 13  2
 12 14  1
 13 15  1
 14 16  2
 15 17  2
 15 18  1
 18 19  2
 18 20  1
 20 21  1
 21 22  2
 21 23  1
 22 24  1
 23 25  2
 24 26  2
 27 24  1
 27 28  1  1  0
 27 29  1
 28 30  1
 30 31  2
 30 32  1
 31 33  1
 32 34  1
 32 35  1
  8  9  1
 16 17  1
 25 26  1
 33 34  2
M  END
> <COMPOUND_NAMES>
Example 158 (Stereo) (Page No: 420)

> <Reference>
WO2019148005

> <IC50_range_nM>
3001-10000

> <smiles>
C[C@@H](c1cccc(c1)NC(c1cc(ccn1)C(N1CCC(C1)S(C)(=O)=O)=O)=O)Sc1nncn1C

$$$$
C21H24N6O3S
  MOLSOFT 03092310482D

 31 33  0  0  1  0  0  0  0  0999 V2000
    0.0000   -0.0000    0.0000 S   0  0  0
   -0.3287   -1.4556    0.0000 C   0  0  0
    1.4203    0.4695    0.0000 C   0  0  2
    0.6573   -2.5590    0.0000 N   0  0  0
   -1.7138   -2.0542    0.0000 N   0  0  0
    1.7255    1.9486    0.0000 C   0  0  0
    2.5237   -0.5165    0.0000 C   0  0  0
   -0.1056   -3.8502    0.0000 N   0  0  0
   -1.5729   -3.5332    0.0000 C   0  0  0
   -3.0285   -1.2912    0.0000 C   0  0  0
    3.1341    2.4181    0.0000 C   0  0  0
    0.5987    2.9698    0.0000 C   0  0  0
    3.4393    3.8971    0.0000 C   0  0  0
    0.9039    4.4488    0.0000 C   0  0  0
    4.8479    4.3667    0.0000 N   0  0  0
    2.3124    4.9184    0.0000 C   0  0  0
    5.1531    5.8457    0.0000 C   0  0  0
    4.0262    6.8552    0.0000 O   0  0  0
    6.5617    6.3152    0.0000 C   0  0  0
    7.6651    5.3175    0.0000 N   0  0  0
    6.8669    7.7942    0.0000 C   0  0  0
    9.0737    5.7987    0.0000 C   0  0  0
    8.2755    8.2638    0.0000 C   0  0  0
    9.3789    7.2778    0.0000 C   0  0  0
    8.5807    9.7428    0.0000 C   0  0  0
    9.9893   10.2123    0.0000 O   0  0  0
    7.4538   10.7523    0.0000 N   0  0  0
    7.7590   12.2313    0.0000 C   0  0  0
    6.6322   13.2408    0.0000 C   0  0  2
    5.2001   12.7948    0.0000 O   0  0  0
    6.9373   14.7199    0.0000 C   0  0  0
  1  2  1
  3  1  1  6  0
  2  4  2
  2  5  1
  3  6  1
  3  7  1
  4  8  1
  5  9  1
  5 10  1
  6 11  2
  6 12  1
 11 13  1
 12 14  2
 13 15  1
 13 16  2
 15 17  1
 17 18  2
 17 19  1
 19 20  2
 19 21  1
 20 22  1
 21 23  2
 22 24  2
 23 25  1
 25 26  2
 25 27  1
 27 28  1
 29 28  1
 29 30  1  6  0
 29 31  1
  8  9  2
 14 16  1
 23 24  1
M  END
> <COMPOUND_NAMES>
Example 156 (Stereo) (Page No: 419)

> <Reference>
WO2019148005

> <IC50_range_nM>
3001-10000

> <smiles>
C[C@@H](c1cccc(c1)NC(c1cc(ccn1)C(NC[C@@H](C)O)=O)=O)Sc1nncn1C

$$$$
C21H24N6O3S
  MOLSOFT 03092310482D

 31 33  0  0  1  0  0  0  0  0999 V2000
    0.0000   -0.0000    0.0000 S   0  0  0
   -0.3287   -1.4556    0.0000 C   0  0  0
    1.4203    0.4695    0.0000 C   0  0  2
    0.6573   -2.5590    0.0000 N   0  0  0
   -1.7138   -2.0542    0.0000 N   0  0  0
    1.7255    1.9486    0.0000 C   0  0  0
    2.5237   -0.5165    0.0000 C   0  0  0
   -0.1056   -3.8502    0.0000 N   0  0  0
   -1.5729   -3.5332    0.0000 C   0  0  0
   -3.0285   -1.2912    0.0000 C   0  0  0
    3.1341    2.4181    0.0000 C   0  0  0
    0.5987    2.9698    0.0000 C   0  0  0
    3.4393    3.8971    0.0000 C   0  0  0
    0.9039    4.4488    0.0000 C   0  0  0
    4.8479    4.3667    0.0000 N   0  0  0
    2.3124    4.9184    0.0000 C   0  0  0
    5.1531    5.8457    0.0000 C   0  0  0
    4.0262    6.8552    0.0000 O   0  0  0
    6.5617    6.3152    0.0000 C   0  0  0
    7.6651    5.3175    0.0000 N   0  0  0
    6.8669    7.7942    0.0000 C   0  0  0
    9.0737    5.7987    0.0000 C   0  0  0
    8.2755    8.2638    0.0000 C   0  0  0
    9.3789    7.2778    0.0000 C   0  0  0
    8.5807    9.7428    0.0000 C   0  0  0
    9.9893   10.2123    0.0000 O   0  0  0
    7.4538   10.7523    0.0000 N   0  0  0
    7.7590   12.2313    0.0000 C   0  0  0
    6.6322   13.2408    0.0000 C   0  0  1
    5.2001   12.7948    0.0000 O   0  0  0
    6.9373   14.7199    0.0000 C   0  0  0
  1  2  1
  3  1  1  6  0
  2  4  2
  2  5  1
  3  6  1
  3  7  1
  4  8  1
  5  9  1
  5 10  1
  6 11  2
  6 12  1
 11 13  1
 12 14  2
 13 15  1
 13 16  2
 15 17  1
 17 18  2
 17 19  1
 19 20  2
 19 21  1
 20 22  1
 21 23  2
 22 24  2
 23 25  1
 25 26  2
 25 27  1
 27 28  1
 29 28  1
 29 30  1  1  0
 29 31  1
  8  9  2
 14 16  1
 23 24  1
M  END
> <COMPOUND_NAMES>
Example 157 (Stereo) (Page No: 419)

> <Reference>
WO2019148005

> <IC50_range_nM>
3001-10000

> <smiles>
C[C@@H](CNC(c1ccnc(c1)C(Nc1cccc(c1)[C@H](C)Sc1nncn1C)=O)=O)O

$$$$
C21H22F3N7O2S
  MOLSOFT 03092310482D

 34 37  0  0  1  0  0  0  0  0999 V2000
    0.0000   -0.0000    0.0000 S   0  0  0
   -1.3144    0.7697    0.0000 C   0  0  0
    1.2907    0.7697    0.0000 C   0  0  2
   -2.6998    0.1658    0.0000 N   0  0  0
   -1.4801    2.2735    0.0000 N   0  0  0
    2.5814    0.0237    0.0000 C   0  0  0
    1.2788    2.2853    0.0000 C   0  0  0
   -3.7181    1.2907    0.0000 N   0  0  0
   -2.9603    2.5932    0.0000 C   0  0  0
   -0.3789    3.2918    0.0000 C   0  0  0
    2.5695   -1.4683    0.0000 C   0  0  0
    3.8720    0.7934    0.0000 C   0  0  0
    3.8602   -2.2024    0.0000 C   0  0  0
    5.1627    0.0474    0.0000 C   0  0  0
    5.1509   -1.4446    0.0000 N   0  0  0
    3.8483   -3.6944    0.0000 N   0  0  0
    2.5340   -4.4404    0.0000 C   0  0  0
    1.2196   -3.6707    0.0000 O   0  0  0
    2.5221   -5.9324    0.0000 C   0  0  0
    1.2078   -6.6665    0.0000 N   0  0  0
    3.8128   -6.6665    0.0000 C   0  0  0
    1.1959   -8.1585    0.0000 C   0  0  0
    3.8010   -8.1585    0.0000 C   0  0  0
    2.4866   -8.8926    0.0000 C   0  0  0
   -0.1184   -8.8926    0.0000 C   0  0  0
    5.0917   -8.8926    0.0000 N   0  0  0
   -0.8762   -7.5783    0.0000 F   0  0  0
   -1.4328   -9.6386    0.0000 F   0  0  0
    0.6276  -10.1833    0.0000 F   0  0  0
    5.2338  -10.3728    0.0000 C   0  0  0
    6.4534   -8.2651    0.0000 C   0  0  0
    6.6902  -10.6688    0.0000 C   0  0  2
    7.4480   -9.3663    0.0000 C   0  0  0
    7.2941  -12.0305    0.0000 O   0  0  0
  1  2  1
  3  1  1  1  0
  2  4  2
  2  5  1
  3  6  1
  3  7  1
  4  8  1
  5  9  1
  5 10  1
  6 11  2
  6 12  1
 11 13  1
 12 14  2
 13 15  2
 13 16  1
 16 17  1
 17 18  2
 17 19  1
 19 20  2
 19 21  1
 20 22  1
 21 23  2
 22 24  2
 22 25  1
 23 26  1
 25 27  1
 25 28  1
 25 29  1
 26 30  1
 26 31  1
 32 30  1
 31 33  1
 32 34  1  6  0
  8  9  2
 14 15  1
 23 24  1
 32 33  1
M  END
> <COMPOUND_NAMES>
Example 126 (S) (Page No: 408)

> <Reference>
WO2019148005

> <IC50_range_nM>
1001-3000

> <smiles>
C[C@@H](c1ccnc(c1)NC(c1cc(cc(C(F)(F)F)n1)N1CC[C@@H](C1)O)=O)Sc1nncn1C

$$$$
C19H22N6O4S2
  MOLSOFT 03092310482D

 31 33  0  0  1  0  0  0  0  0999 V2000
    0.0000   -0.0000    0.0000 S   0  0  0
   -1.5059    0.0118    0.0000 O   0  0  0
    1.4824    0.0118    0.0000 O   0  0  0
   -0.0118    1.5059    0.0000 N   0  0  0
   -0.0118   -1.4824    0.0000 C   0  0  0
   -1.3177    2.2589    0.0000 C   0  0  0
    1.2706   -2.2118    0.0000 C   0  0  0
   -1.3294    3.7648    0.0000 C   0  0  0
   -2.6236    1.5177    0.0000 C   0  0  0
    1.2588   -3.6942    0.0000 O   0  0  0
   -2.6353    4.5177    0.0000 C   0  0  0
   -3.9295    2.2706    0.0000 C   0  0  0
   -3.9412    3.7765    0.0000 N   0  0  0
   -2.6471    6.0236    0.0000 C   0  0  0
   -3.9530    6.7766    0.0000 O   0  0  0
   -1.3647    6.7766    0.0000 N   0  0  0
   -1.3765    8.2825    0.0000 C   0  0  0
   -2.6824    9.0354    0.0000 C   0  0  0
   -0.0941    9.0354    0.0000 C   0  0  0
   -2.6942   10.5413    0.0000 C   0  0  0
   -0.1059   10.5413    0.0000 C   0  0  0
   -1.4118   11.2943    0.0000 C   0  0  0
   -4.0001   11.2943    0.0000 C   0  0  1
   -5.3060   10.5648    0.0000 S   0  0  0
   -4.0118   12.8002    0.0000 C   0  0  0
   -6.6119   11.3178    0.0000 C   0  0  0
   -7.9883   10.7178    0.0000 N   0  0  0
   -6.7766   12.8119    0.0000 N   0  0  0
   -9.0001   11.8354    0.0000 N   0  0  0
   -8.2472   13.1296    0.0000 C   0  0  0
   -5.6824   13.8237    0.0000 C   0  0  0
  1  2  2
  1  3  2
  1  4  1
  1  5  1
  4  6  1
  5  7  1
  6  8  2
  6  9  1
  7 10  1
  8 11  1
  9 12  2
 11 13  2
 11 14  1
 14 15  2
 14 16  1
 16 17  1
 17 18  2
 17 19  1
 18 20  1
 19 21  2
 20 22  2
 23 20  1
 23 24  1  1  0
 23 25  1
 24 26  1
 26 27  2
 26 28  1
 27 29  1
 28 30  1
 28 31  1
 12 13  1
 21 22  1
 29 30  2
M  END
> <COMPOUND_NAMES>
Example 86 (S) (Page No: 391)

> <Reference>
WO2019148005

> <IC50_range_nM>
3001-10000

> <smiles>
C[C@@H](c1cccc(c1)NC(c1cc(ccn1)NS(CCO)(=O)=O)=O)Sc1nncn1C

$$$$
C19H16F4N4OS
  MOLSOFT 03092310482D

 29 31  0  0  1  0  0  0  0  0999 V2000
    0.0000   -0.0000    0.0000 S   0  0  0
   -1.3154    0.7584    0.0000 C   0  0  0
    1.2917    0.7584    0.0000 C   0  0  2
   -2.7018    0.1541    0.0000 N   0  0  0
   -1.4813    2.2634    0.0000 N   0  0  0
    2.5833    0.0237    0.0000 C   0  0  0
    1.2798    2.2752    0.0000 C   0  0  0
   -3.7209    1.2798    0.0000 N   0  0  0
   -2.9625    2.5833    0.0000 C   0  0  0
   -0.3792    3.2825    0.0000 C   0  0  0
    2.5715   -1.4694    0.0000 C   0  0  0
    3.8750    0.7821    0.0000 C   0  0  0
    3.8631   -2.2041    0.0000 C   0  0  0
    5.1667    0.0474    0.0000 C   0  0  0
    3.8513   -3.6972    0.0000 N   0  0  0
    5.1548   -1.4457    0.0000 C   0  0  0
    2.5359   -4.4319    0.0000 C   0  0  0
    1.2206   -3.6735    0.0000 O   0  0  0
    2.5241   -5.9251    0.0000 C   0  0  0
    3.8157   -6.6598    0.0000 C   0  0  0
    1.2087   -6.6598    0.0000 C   0  0  0
    5.1074   -5.9014    0.0000 F   0  0  0
    3.8039   -8.1529    0.0000 C   0  0  0
    1.1969   -8.1529    0.0000 C   0  0  0
    2.4885   -8.8876    0.0000 C   0  0  0
    5.0956   -8.8876    0.0000 C   0  0  0
    4.3371  -10.1793    0.0000 F   0  0  0
    6.3872   -9.6223    0.0000 F   0  0  0
    5.8303   -7.5722    0.0000 F   0  0  0
  1  2  1
  3  1  1  1  0
  2  4  2
  2  5  1
  3  6  1
  3  7  1
  4  8  1
  5  9  1
  5 10  1
  6 11  2
  6 12  1
 11 13  1
 12 14  2
 13 15  1
 13 16  2
 15 17  1
 17 18  2
 17 19  1
 19 20  2
 19 21  1
 20 22  1
 20 23  1
 21 24  2
 23 25  2
 23 26  1
 26 27  1
 26 28  1
 26 29  1
  8  9  2
 14 16  1
 24 25  1
M  END
> <COMPOUND_NAMES>
Example 42 (S) (Page No: 371)

> <Reference>
WO2019148005

> <IC50_range_nM>
301-1000

> <smiles>
C[C@@H](c1cccc(c1)NC(c1cccc(c1F)C(F)(F)F)=O)Sc1nncn1C

$$$$
C18H19N5OS
  MOLSOFT 03092310482D

 25 27  0  0  1  0  0  0  0  0999 V2000
    0.0000   -0.0000    0.0000 S   0  0  0
   -1.3146    0.7580    0.0000 C   0  0  0
    1.2909    0.7580    0.0000 C   0  0  2
   -2.7003    0.1540    0.0000 N   0  0  0
   -1.4804    2.2621    0.0000 N   0  0  0
    2.5818    0.0237    0.0000 C   0  0  0
    1.2791    2.2739    0.0000 C   0  0  0
   -3.7188    1.2791    0.0000 N   0  0  0
   -2.9608    2.5818    0.0000 C   0  0  0
   -0.3790    3.2806    0.0000 C   0  0  0
    2.5700   -1.4686    0.0000 C   0  0  0
    3.8728    0.7817    0.0000 C   0  0  0
    3.8609   -2.2029    0.0000 C   0  0  0
    5.1637    0.0474    0.0000 C   0  0  0
    3.8491   -3.6951    0.0000 N   0  0  0
    5.1518   -1.4449    0.0000 C   0  0  0
    2.5345   -4.4294    0.0000 C   0  0  0
    1.2199   -3.6714    0.0000 O   0  0  0
    2.5226   -5.9216    0.0000 C   0  0  0
    3.8135   -6.6678    0.0000 C   0  0  0
    1.2080   -6.6678    0.0000 C   0  0  0
    3.8017   -8.1600    0.0000 C   0  0  0
    1.1962   -8.1600    0.0000 C   0  0  0
    5.0926   -8.8943    0.0000 N   0  0  0
    2.4871   -8.8943    0.0000 C   0  0  0
  1  2  1
  3  1  1  1  0
  2  4  2
  2  5  1
  3  6  1
  3  7  1
  4  8  1
  5  9  1
  5 10  1
  6 11  2
  6 12  1
 11 13  1
 12 14  2
 13 15  1
 13 16  2
 15 17  1
 17 18  2
 17 19  1
 19 20  2
 19 21  1
 20 22  1
 21 23  2
 22 24  1
 22 25  2
  8  9  2
 14 16  1
 23 25  1
M  END
> <COMPOUND_NAMES>
Example 58 (S) (Page No: 377)

> <Reference>
WO2019148005

> <IC50_range_nM>
3001-10000

> <smiles>
C[C@@H](c1cccc(c1)NC(c1cccc(c1)N)=O)Sc1nncn1C

$$$$
C19H21N5OS
  MOLSOFT 03092310482D

 26 28  0  0  1  0  0  0  0  0999 V2000
    0.0000   -0.0000    0.0000 S   0  0  0
   -0.3288   -1.4563    0.0000 C   0  0  0
    1.4211    0.4698    0.0000 C   0  0  2
    0.6577   -2.5603    0.0000 N   0  0  0
   -1.7147   -2.0553    0.0000 N   0  0  0
    1.7264    1.9496    0.0000 C   0  0  0
    2.5250   -0.5168    0.0000 C   0  0  0
   -0.1057   -3.8522    0.0000 N   0  0  0
   -1.5737   -3.5351    0.0000 C   0  0  0
   -3.0301   -1.2919    0.0000 C   0  0  0
    3.1357    2.4193    0.0000 C   0  0  0
    0.5990    2.9713    0.0000 C   0  0  0
    3.4411    3.8991    0.0000 C   0  0  0
    0.9043    4.4511    0.0000 C   0  0  0
    4.8504    4.3689    0.0000 N   0  0  0
    2.3136    4.9209    0.0000 C   0  0  0
    5.1558    5.8487    0.0000 C   0  0  0
    4.0283    6.8587    0.0000 O   0  0  0
    6.5651    6.3185    0.0000 C   0  0  0
    6.8705    7.7983    0.0000 C   0  0  0
    7.6691    5.3202    0.0000 C   0  0  0
    8.2798    8.2680    0.0000 C   0  0  0
    9.0784    5.8017    0.0000 C   0  0  0
    8.5851    9.7478    0.0000 N   0  0  0
    9.3838    7.2698    0.0000 C   0  0  0
    7.4577   10.7579    0.0000 C   0  0  0
  1  2  1
  3  1  1  6  0
  2  4  2
  2  5  1
  3  6  1
  3  7  1
  4  8  1
  5  9  1
  5 10  1
  6 11  2
  6 12  1
 11 13  1
 12 14  2
 13 15  1
 13 16  2
 15 17  1
 17 18  2
 17 19  1
 19 20  2
 19 21  1
 20 22  1
 21 23  2
 22 24  1
 22 25  2
 24 26  1
  8  9  2
 14 16  1
 23 25  1
M  END
> <COMPOUND_NAMES>
Example 47 (S) (Page No: 373)

> <Reference>
WO2019148005

> <IC50_range_nM>
3001-10000

> <smiles>
C[C@@H](c1cccc(c1)NC(c1cccc(c1)NC)=O)Sc1nncn1C

$$$$
C20H23N5OS
  MOLSOFT 03092310482D

 27 29  0  0  1  0  0  0  0  0999 V2000
    0.0000   -0.0000    0.0000 S   0  0  0
   -1.3153    0.7584    0.0000 C   0  0  0
    1.2916    0.7584    0.0000 C   0  0  2
   -2.7017    0.1540    0.0000 N   0  0  0
   -1.4812    2.2632    0.0000 N   0  0  0
    2.5832    0.0237    0.0000 C   0  0  0
    1.2797    2.2751    0.0000 C   0  0  0
   -3.7207    1.2797    0.0000 N   0  0  0
   -2.9623    2.5832    0.0000 C   0  0  0
   -0.3792    3.2823    0.0000 C   0  0  0
    2.5713   -1.4693    0.0000 C   0  0  0
    3.8748    0.7821    0.0000 C   0  0  0
    3.8629   -2.2040    0.0000 C   0  0  0
    5.1663    0.0474    0.0000 C   0  0  0
    3.8511   -3.6970    0.0000 N   0  0  0
    5.1545   -1.4456    0.0000 C   0  0  0
    2.5358   -4.4317    0.0000 C   0  0  0
    1.2205   -3.6733    0.0000 O   0  0  0
    2.5239   -5.9247    0.0000 C   0  0  0
    3.8155   -6.6594    0.0000 C   0  0  0
    1.2086   -6.6594    0.0000 C   0  0  0
    3.8037   -8.1524    0.0000 C   0  0  0
    1.1968   -8.1524    0.0000 C   0  0  0
    5.0952   -8.8870    0.0000 N   0  0  0
    2.4884   -8.8870    0.0000 C   0  0  0
    5.0834  -10.3801    0.0000 C   0  0  0
    6.3868   -8.1287    0.0000 C   0  0  0
  1  2  1
  3  1  1  1  0
  2  4  2
  2  5  1
  3  6  1
  3  7  1
  4  8  1
  5  9  1
  5 10  1
  6 11  2
  6 12  1
 11 13  1
 12 14  2
 13 15  1
 13 16  2
 15 17  1
 17 18  2
 17 19  1
 19 20  2
 19 21  1
 20 22  1
 21 23  2
 22 24  1
 22 25  2
 24 26  1
 24 27  1
  8  9  2
 14 16  1
 23 25  1
M  END
> <COMPOUND_NAMES>
Example 26 (S) (Page No: 366)

> <Reference>
WO2019148005

> <IC50_range_nM>
>10000

> <smiles>
C[C@@H](c1cccc(c1)NC(c1cccc(c1)N(C)C)=O)Sc1nncn1C

$$$$
C19H17F3N4O2S
  MOLSOFT 03092310482D

 29 31  0  0  1  0  0  0  0  0999 V2000
    0.0000   -0.0000    0.0000 S   0  0  0
   -1.3146    0.7580    0.0000 C   0  0  0
    1.2910    0.7580    0.0000 C   0  0  2
   -2.7003    0.1540    0.0000 N   0  0  0
   -1.4805    2.2621    0.0000 N   0  0  0
    2.5819    0.0237    0.0000 C   0  0  0
    1.2791    2.2740    0.0000 C   0  0  0
   -3.7189    1.2791    0.0000 N   0  0  0
   -2.9609    2.5819    0.0000 C   0  0  0
   -0.3790    3.2807    0.0000 C   0  0  0
    2.5701   -1.4686    0.0000 C   0  0  0
    3.8729    0.7817    0.0000 C   0  0  0
    3.8610   -2.2029    0.0000 C   0  0  0
    5.1638    0.0474    0.0000 C   0  0  0
    3.8492   -3.6952    0.0000 N   0  0  0
    5.1520   -1.4449    0.0000 C   0  0  0
    2.5345   -4.4414    0.0000 C   0  0  0
    1.2199   -3.6834    0.0000 O   0  0  0
    2.5227   -5.9337    0.0000 C   0  0  0
    3.8136   -6.6798    0.0000 C   0  0  0
    1.2080   -6.6798    0.0000 C   0  0  0
    3.8018   -8.1721    0.0000 C   0  0  0
    1.1962   -8.1721    0.0000 C   0  0  0
    5.0928   -8.9064    0.0000 O   0  0  0
    2.4872   -8.9064    0.0000 C   0  0  0
    5.0809  -10.3987    0.0000 C   0  0  0
    3.5649  -10.3869    0.0000 F   0  0  0
    5.0691  -11.8910    0.0000 F   0  0  0
    6.5732  -10.3869    0.0000 F   0  0  0
  1  2  1
  3  1  1  1  0
  2  4  2
  2  5  1
  3  6  1
  3  7  1
  4  8  1
  5  9  1
  5 10  1
  6 11  2
  6 12  1
 11 13  1
 12 14  2
 13 15  1
 13 16  2
 15 17  1
 17 18  2
 17 19  1
 19 20  2
 19 21  1
 20 22  1
 21 23  2
 22 24  1
 22 25  2
 24 26  1
 26 27  1
 26 28  1
 26 29  1
  8  9  2
 14 16  1
 23 25  1
M  END
> <COMPOUND_NAMES>
Example 79 (S) (Page No: 388)

> <Reference>
WO2019148005

> <IC50_range_nM>
3001-10000

> <smiles>
C[C@@H](c1cccc(c1)NC(c1cccc(c1)OC(F)(F)F)=O)Sc1nncn1C

$$$$
C20H19F3N4O2S
  MOLSOFT 03092310482D

 30 32  0  0  1  0  0  0  0  0999 V2000
    0.0000   -0.0000    0.0000 S   0  0  0
   -0.3293   -1.4584    0.0000 C   0  0  0
    1.4231    0.4704    0.0000 C   0  0  2
    0.6586   -2.5639    0.0000 N   0  0  0
   -1.7171   -2.0582    0.0000 N   0  0  0
    1.7289    1.9523    0.0000 C   0  0  0
    2.5286   -0.5175    0.0000 C   0  0  0
   -0.1059   -3.8577    0.0000 N   0  0  0
   -1.5760   -3.5401    0.0000 C   0  0  0
   -3.0344   -1.2937    0.0000 C   0  0  0
    3.1402    2.4228    0.0000 C   0  0  0
    0.5998    2.9756    0.0000 C   0  0  0
    3.4460    3.9047    0.0000 C   0  0  0
    0.9056    4.4575    0.0000 C   0  0  0
    4.8573    4.3751    0.0000 N   0  0  0
    2.3169    4.9279    0.0000 C   0  0  0
    5.1631    5.8570    0.0000 C   0  0  0
    4.0341    6.8685    0.0000 O   0  0  0
    6.5745    6.3275    0.0000 C   0  0  0
    7.6800    5.3278    0.0000 C   0  0  0
    6.8803    7.8094    0.0000 C   0  0  0
    7.3507    3.8694    0.0000 O   0  0  0
    9.0914    5.8100    0.0000 C   0  0  0
    8.2916    8.2798    0.0000 C   0  0  0
    8.4563    2.8697    0.0000 C   0  0  0
    9.3971    7.2919    0.0000 C   0  0  0
   10.1969    4.8103    0.0000 C   0  0  0
    9.1737    3.7048    0.0000 F   0  0  0
   11.3024    3.8224    0.0000 F   0  0  0
   11.1848    5.9394    0.0000 F   0  0  0
  1  2  1
  3  1  1  6  0
  2  4  2
  2  5  1
  3  6  1
  3  7  1
  4  8  1
  5  9  1
  5 10  1
  6 11  2
  6 12  1
 11 13  1
 12 14  2
 13 15  1
 13 16  2
 15 17  1
 17 18  2
 17 19  1
 19 20  2
 19 21  1
 20 22  1
 20 23  1
 21 24  2
 22 25  1
 23 26  2
 23 27  1
 27 28  1
 27 29  1
 27 30  1
  8  9  2
 14 16  1
 24 26  1
M  END
> <COMPOUND_NAMES>
Example 43 (S) (Page No: 372)

> <Reference>
WO2019148005

> <IC50_range_nM>
3001-10000

> <smiles>
C[C@@H](c1cccc(c1)NC(c1cccc(c1OC)C(F)(F)F)=O)Sc1nncn1C

$$$$
C21H20N6OS
  MOLSOFT 03092310482D

 29 32  0  0  1  0  0  0  0  0999 V2000
    0.0000   -0.0000    0.0000 S   0  0  0
   -1.3146    0.7698    0.0000 C   0  0  0
    1.2909    0.7698    0.0000 C   0  0  2
   -2.7002    0.1658    0.0000 N   0  0  0
   -1.4804    2.2739    0.0000 N   0  0  0
    2.5818    0.0237    0.0000 C   0  0  0
    1.2791    2.2857    0.0000 C   0  0  0
   -3.7188    1.2909    0.0000 N   0  0  0
   -2.9608    2.5937    0.0000 C   0  0  0
   -0.3790    3.2924    0.0000 C   0  0  0
    2.5700   -1.4686    0.0000 C   0  0  0
    3.8727    0.7935    0.0000 C   0  0  0
    3.8609   -2.2028    0.0000 C   0  0  0
    5.1636    0.0474    0.0000 C   0  0  0
    3.8490   -3.6951    0.0000 N   0  0  0
    5.1518   -1.4449    0.0000 C   0  0  0
    2.5344   -4.4293    0.0000 C   0  0  0
    1.2198   -3.6714    0.0000 O   0  0  0
    2.5226   -5.9216    0.0000 C   0  0  0
    3.8135   -6.6559    0.0000 C   0  0  0
    1.2080   -6.6559    0.0000 C   0  0  0
    3.8017   -8.1481    0.0000 C   0  0  0
    1.1962   -8.1481    0.0000 C   0  0  0
    5.0926   -8.8942    0.0000 C   0  0  0
    2.4871   -8.8942    0.0000 C   0  0  0
    5.2347  -10.3746    0.0000 N   0  0  0
    6.4545   -8.2665    0.0000 C   0  0  0
    6.6914  -10.6707    0.0000 N   0  0  0
    7.4494   -9.3680    0.0000 C   0  0  0
  1  2  1
  3  1  1  1  0
  2  4  2
  2  5  1
  3  6  1
  3  7  1
  4  8  1
  5  9  1
  5 10  1
  6 11  2
  6 12  1
 11 13  1
 12 14  2
 13 15  1
 13 16  2
 15 17  1
 17 18  2
 17 19  1
 19 20  2
 19 21  1
 20 22  1
 21 23  2
 22 24  1
 22 25  2
 24 26  1
 24 27  2
 26 28  1
 27 29  1
  8  9  2
 14 16  1
 23 25  1
 28 29  2
M  END
> <COMPOUND_NAMES>
Example 44 (S) (Page No: 372)

> <Reference>
WO2019148005

> <IC50_range_nM>
3001-10000

> <smiles>
C[C@@H](c1cccc(c1)NC(c1cccc(c1)c1ccn[nH]1)=O)Sc1nncn1C

$$$$
C22H22N6OS
  MOLSOFT 03092310482D

 30 33  0  0  1  0  0  0  0  0999 V2000
    0.0000   -0.0000    0.0000 S   0  0  0
   -1.3142    0.7696    0.0000 C   0  0  0
    1.2906    0.7696    0.0000 C   0  0  2
   -2.6995    0.1658    0.0000 N   0  0  0
   -1.4800    2.2733    0.0000 N   0  0  0
    2.5811    0.0237    0.0000 C   0  0  0
    1.2787    2.2851    0.0000 C   0  0  0
   -3.7177    1.2906    0.0000 N   0  0  0
   -2.9600    2.5929    0.0000 C   0  0  0
   -0.3789    3.2915    0.0000 C   0  0  0
    2.5693   -1.4682    0.0000 C   0  0  0
    3.8717    0.7933    0.0000 C   0  0  0
    3.8598   -2.2022    0.0000 C   0  0  0
    5.1622    0.0474    0.0000 C   0  0  0
    3.8480   -3.6941    0.0000 N   0  0  0
    5.1504   -1.4445    0.0000 C   0  0  0
    2.5337   -4.4400    0.0000 C   0  0  0
    1.2195   -3.6704    0.0000 O   0  0  0
    2.5219   -5.9318    0.0000 C   0  0  0
    3.8125   -6.6659    0.0000 C   0  0  0
    1.2077   -6.6659    0.0000 C   0  0  0
    3.8006   -8.1577    0.0000 C   0  0  0
    1.1958   -8.1577    0.0000 C   0  0  0
    5.0912   -8.9036    0.0000 C   0  0  0
    2.4864   -8.9036    0.0000 C   0  0  0
    5.2332  -10.3836    0.0000 N   0  0  0
    6.4528   -8.2761    0.0000 C   0  0  0
    6.6896  -10.6796    0.0000 N   0  0  0
    4.1085  -11.3782    0.0000 C   0  0  0
    7.4473   -9.3772    0.0000 C   0  0  0
  1  2  1
  3  1  1  1  0
  2  4  2
  2  5  1
  3  6  1
  3  7  1
  4  8  1
  5  9  1
  5 10  1
  6 11  2
  6 12  1
 11 13  1
 12 14  2
 13 15  1
 13 16  2
 15 17  1
 17 18  2
 17 19  1
 19 20  2
 19 21  1
 20 22  1
 21 23  2
 22 24  1
 22 25  2
 24 26  1
 24 27  2
 26 28  1
 26 29  1
 27 30  1
  8  9  2
 14 16  1
 23 25  1
 28 30  2
M  END
> <COMPOUND_NAMES>
Example 45 (S) (Page No: 372)

> <Reference>
WO2019148005

> <IC50_range_nM>
3001-10000

> <smiles>
C[C@@H](c1cccc(c1)NC(c1cccc(c1)c1ccnn1C)=O)Sc1nncn1C

$$$$
C18H19N5O2S
  MOLSOFT 03092310482D

 26 28  0  0  1  0  0  0  0  0999 V2000
    0.0000   -0.0000    0.0000 S   0  0  0
   -1.3144    0.7579    0.0000 C   0  0  0
    1.2907    0.7579    0.0000 C   0  0  2
   -2.6999    0.1539    0.0000 N   0  0  0
   -1.4802    2.2618    0.0000 N   0  0  0
    2.5815    0.0237    0.0000 C   0  0  0
    1.2789    2.2736    0.0000 C   0  0  0
   -3.7183    1.2789    0.0000 N   0  0  0
   -2.9604    2.5815    0.0000 C   0  0  0
   -0.3789    3.2801    0.0000 C   0  0  0
    2.5696   -1.4684    0.0000 C   0  0  0
    3.8722    0.7816    0.0000 C   0  0  0
    3.8604   -2.2026    0.0000 C   0  0  0
    5.1630    0.0474    0.0000 C   0  0  0
    3.8485   -3.6946    0.0000 N   0  0  0
    5.1511   -1.4447    0.0000 C   0  0  0
    2.5341   -4.4288    0.0000 C   0  0  0
    1.2197   -3.6709    0.0000 O   0  0  0
    2.5223   -5.9208    0.0000 C   0  0  0
    1.2079   -6.6669    0.0000 N   0  0  0
    3.8130   -6.6669    0.0000 C   0  0  0
    1.1960   -8.1589    0.0000 C   0  0  0
    3.8012   -8.1589    0.0000 C   0  0  0
   -0.1184   -8.8931    0.0000 O   0  0  0
    2.4868   -8.8931    0.0000 C   0  0  0
    5.0919   -8.8931    0.0000 C   0  0  0
  1  2  1
  3  1  1  1  0
  2  4  2
  2  5  1
  3  6  1
  3  7  1
  4  8  1
  5  9  1
  5 10  1
  6 11  2
  6 12  1
 11 13  1
 12 14  2
 13 15  1
 13 16  2
 15 17  1
 17 18  2
 17 19  1
 19 20  1
 19 21  2
 20 22  1
 21 23  1
 22 24  2
 22 25  1
 23 26  1
  8  9  2
 14 16  1
 23 25  2
M  END
> <COMPOUND_NAMES>
Example 50 (S) (Page No: 374)

> <Reference>
WO2019148005

> <IC50_range_nM>
3001-10000

> <smiles>
CC1=CC(NC(=C1)C(Nc1cccc(c1)[C@H](C)Sc1nncn1C)=O)=O

$$$$
C21H19N5OS
  MOLSOFT 03092310482D

 28 31  0  0  1  0  0  0  0  0999 V2000
    0.0000   -0.0000    0.0000 S   0  0  0
   -1.3146    0.7580    0.0000 C   0  0  0
    1.2909    0.7580    0.0000 C   0  0  2
   -2.7002    0.1540    0.0000 N   0  0  0
   -1.4804    2.2620    0.0000 N   0  0  0
    2.5818    0.0237    0.0000 C   0  0  0
    1.2791    2.2739    0.0000 C   0  0  0
   -3.7188    1.2791    0.0000 N   0  0  0
   -2.9608    2.5818    0.0000 C   0  0  0
   -0.3790    3.2806    0.0000 C   0  0  0
    3.8727    0.7816    0.0000 C   0  0  0
    2.5700   -1.4686    0.0000 C   0  0  0
    5.1636    0.0474    0.0000 C   0  0  0
    3.8609   -2.2028    0.0000 C   0  0  0
    6.4545    0.8053    0.0000 C   0  0  0
    5.1518   -1.4449    0.0000 C   0  0  0
    7.7454    0.0711    0.0000 O   0  0  0
    6.4427    2.3213    0.0000 N   0  0  0
    7.7336    3.0792    0.0000 C   0  0  0
    9.0245    2.3449    0.0000 N   0  0  0
    7.7217    4.5951    0.0000 C   0  0  0
   10.3154    3.1029    0.0000 C   0  0  0
    9.0127    5.3531    0.0000 C   0  0  0
   10.3036    4.6188    0.0000 C   0  0  0
   11.6063    2.3686    0.0000 C   0  0  0
   11.5945    5.3768    0.0000 C   0  0  0
   12.8972    3.1266    0.0000 C   0  0  0
   12.8854    4.6425    0.0000 C   0  0  0
  1  2  1
  3  1  1  1  0
  2  4  2
  2  5  1
  3  6  1
  3  7  1
  4  8  1
  5  9  1
  5 10  1
  6 11  2
  6 12  1
 11 13  1
 12 14  2
 13 15  1
 13 16  2
 15 17  2
 15 18  1
 18 19  1
 19 20  2
 19 21  1
 20 22  1
 21 23  2
 22 24  1
 22 25  2
 24 26  2
 25 27  1
 26 28  1
  8  9  2
 14 16  1
 23 24  1
 27 28  2
M  END
> <COMPOUND_NAMES>
Compound 35 (S) (Page No: 57, Table No: 1)

> <Reference>
WO 2021/021761 A1

> <IC50_range_nM>
>5000

> <smiles>
C[C@@H](c1cccc(c1)C(Nc1ccc2ccccc2n1)=O)Sc1nncn1C

$$$$
C20H18N6OS
  MOLSOFT 03092310482D

 28 31  0  0  1  0  0  0  0  0999 V2000
    0.0000   -0.0000    0.0000 S   0  0  0
   -1.3147    0.7580    0.0000 C   0  0  0
    1.2910    0.7580    0.0000 C   0  0  2
   -2.7005    0.1540    0.0000 N   0  0  0
   -1.4805    2.2623    0.0000 N   0  0  0
    2.5821    0.0237    0.0000 C   0  0  0
    1.2792    2.2741    0.0000 C   0  0  0
   -3.7191    1.2792    0.0000 N   0  0  0
   -2.9611    2.5821    0.0000 C   0  0  0
   -0.3790    3.2809    0.0000 C   0  0  0
    2.5702   -1.4687    0.0000 C   0  0  0
    3.8731    0.7817    0.0000 C   0  0  0
    3.8612   -2.2030    0.0000 C   0  0  0
    5.1641    0.0474    0.0000 C   0  0  0
    5.1523   -1.4450    0.0000 N   0  0  0
    3.8494   -3.6954    0.0000 N   0  0  0
    2.5347   -4.4298    0.0000 C   0  0  0
    1.2200   -3.6717    0.0000 O   0  0  0
    2.5228   -5.9221    0.0000 C   0  0  0
    1.2081   -6.6683    0.0000 N   0  0  0
    3.8139   -6.6683    0.0000 C   0  0  0
    1.1963   -8.1607    0.0000 C   0  0  0
    3.8020   -8.1607    0.0000 C   0  0  0
    2.4873   -8.8951    0.0000 C   0  0  0
   -0.1184   -8.8951    0.0000 C   0  0  0
    2.4755  -10.3874    0.0000 C   0  0  0
   -0.1303  -10.3874    0.0000 C   0  0  0
    1.1607  -11.1218    0.0000 C   0  0  0
  1  2  1
  3  1  1  1  0
  2  4  2
  2  5  1
  3  6  1
  3  7  1
  4  8  1
  5  9  1
  5 10  1
  6 11  2
  6 12  1
 11 13  1
 12 14  2
 13 15  2
 13 16  1
 16 17  1
 17 18  2
 17 19  1
 19 20  2
 19 21  1
 20 22  1
 21 23  2
 22 24  1
 22 25  2
 24 26  2
 25 27  1
 26 28  1
  8  9  2
 14 15  1
 23 24  1
 27 28  2
M  END
> <COMPOUND_NAMES>
Example 112 (S) (Page No: 402)

> <Reference>
WO2019148005

> <IC50_range_nM>
301-1000

> <smiles>
C[C@@H](c1ccnc(c1)NC(c1ccc2ccccc2n1)=O)Sc1nncn1C

$$$$
C20H17FN6OS
  MOLSOFT 03092310482D

 29 32  0  0  1  0  0  0  0  0999 V2000
    0.0000   -0.0000    0.0000 S   0  0  0
   -1.3142    0.7578    0.0000 C   0  0  0
    1.2906    0.7578    0.0000 C   0  0  2
   -2.6995    0.1539    0.0000 N   0  0  0
   -1.4800    2.2614    0.0000 N   0  0  0
    2.5811    0.0237    0.0000 C   0  0  0
    1.2787    2.2733    0.0000 C   0  0  0
   -3.7177    1.2787    0.0000 N   0  0  0
   -2.9600    2.5811    0.0000 C   0  0  0
   -0.3789    3.2797    0.0000 C   0  0  0
    2.5693   -1.4682    0.0000 C   0  0  0
    3.8717    0.7814    0.0000 C   0  0  0
    3.8598   -2.2022    0.0000 C   0  0  0
    5.1622    0.0474    0.0000 C   0  0  0
    5.1504   -1.4445    0.0000 N   0  0  0
    3.8480   -3.6941    0.0000 N   0  0  0
    2.5337   -4.4281    0.0000 C   0  0  0
    1.2195   -3.6704    0.0000 O   0  0  0
    2.5219   -5.9200    0.0000 C   0  0  0
    1.2077   -6.6659    0.0000 N   0  0  0
    3.8125   -6.6659    0.0000 C   0  0  0
    1.1958   -8.1577    0.0000 C   0  0  0
    3.8006   -8.1577    0.0000 C   0  0  0
   -0.1184   -8.8918    0.0000 C   0  0  0
    2.4864   -8.8918    0.0000 C   0  0  0
   -1.4326   -8.1340    0.0000 F   0  0  0
   -0.1302  -10.3836    0.0000 C   0  0  0
    2.4745  -10.3836    0.0000 C   0  0  0
    1.1603  -11.1177    0.0000 C   0  0  0
  1  2  1
  3  1  1  1  0
  2  4  2
  2  5  1
  3  6  1
  3  7  1
  4  8  1
  5  9  1
  5 10  1
  6 11  2
  6 12  1
 11 13  1
 12 14  2
 13 15  2
 13 16  1
 16 17  1
 17 18  2
 17 19  1
 19 20  2
 19 21  1
 20 22  1
 21 23  2
 22 24  2
 22 25  1
 24 26  1
 24 27  1
 25 28  2
 27 29  2
  8  9  2
 14 15  1
 23 25  1
 28 29  1
M  END
> <COMPOUND_NAMES>
Example 107 (S) (Page No: 401)

> <Reference>
WO2019148005

> <IC50_range_nM>
1001-3000

> <smiles>
C[C@@H](c1ccnc(c1)NC(c1ccc2cccc(c2n1)F)=O)Sc1nncn1C

$$$$
C21H19N5OS
  MOLSOFT 03092310482D

 28 31  0  0  0  0  0  0  0  0999 V2000
    0.0000   -0.0000    0.0000 S   0  0  0
   -1.3147    0.7580    0.0000 C   0  0  0
    1.2910    0.7580    0.0000 C   0  0  3
   -2.7005    0.1540    0.0000 N   0  0  0
   -1.4805    2.2623    0.0000 N   0  0  0
    2.5821    0.0237    0.0000 C   0  0  0
    1.2792    2.2741    0.0000 C   0  0  0
   -3.7191    1.2792    0.0000 N   0  0  0
   -2.9611    2.5821    0.0000 C   0  0  0
   -0.3790    3.2809    0.0000 C   0  0  0
    2.5702   -1.4687    0.0000 C   0  0  0
    3.8731    0.7817    0.0000 C   0  0  0
    3.8612   -2.2030    0.0000 C   0  0  0
    5.1641    0.0474    0.0000 C   0  0  0
    3.8494   -3.6954    0.0000 N   0  0  0
    5.1523   -1.4450    0.0000 C   0  0  0
    2.5347   -4.4298    0.0000 C   0  0  0
    1.2200   -3.6717    0.0000 O   0  0  0
    2.5228   -5.9221    0.0000 C   0  0  0
    1.2081   -6.6683    0.0000 N   0  0  0
    3.8139   -6.6683    0.0000 C   0  0  0
    1.1963   -8.1607    0.0000 C   0  0  0
    3.8020   -8.1607    0.0000 C   0  0  0
    2.4873   -8.8951    0.0000 C   0  0  0
   -0.1184   -8.8951    0.0000 C   0  0  0
    2.4755  -10.3874    0.0000 C   0  0  0
   -0.1303  -10.3874    0.0000 C   0  0  0
    1.1607  -11.1218    0.0000 C   0  0  0
  1  2  1
  3  1  1
  2  4  2
  2  5  1
  3  6  1
  3  7  1
  4  8  1
  5  9  1
  5 10  1
  6 11  2
  6 12  1
 11 13  1
 12 14  2
 13 15  1
 13 16  2
 15 17  1
 17 18  2
 17 19  1
 19 20  2
 19 21  1
 20 22  1
 21 23  2
 22 24  1
 22 25  2
 24 26  2
 25 27  1
 26 28  1
  8  9  2
 14 16  1
 23 24  1
 27 28  2
M  END
> <COMPOUND_NAMES>
Example 9 (+/-) (Page No: 360)

> <Reference>
WO2019148005

> <IC50_range_nM>
301-1000

> <smiles>
CC(c1cccc(c1)NC(c1ccc2ccccc2n1)=O)Sc1nncn1C

$$$$
C21H19N5OS
  MOLSOFT 03092310482D

 28 31  0  0  1  0  0  0  0  0999 V2000
    0.0000   -0.0000    0.0000 S   0  0  0
   -1.3147    0.7580    0.0000 C   0  0  0
    1.2910    0.7580    0.0000 C   0  0  2
   -2.7005    0.1540    0.0000 N   0  0  0
   -1.4805    2.2623    0.0000 N   0  0  0
    2.5821    0.0237    0.0000 C   0  0  0
    1.2792    2.2741    0.0000 C   0  0  0
   -3.7191    1.2792    0.0000 N   0  0  0
   -2.9611    2.5821    0.0000 C   0  0  0
   -0.3790    3.2809    0.0000 C   0  0  0
    2.5702   -1.4687    0.0000 C   0  0  0
    3.8731    0.7817    0.0000 C   0  0  0
    3.8612   -2.2030    0.0000 C   0  0  0
    5.1641    0.0474    0.0000 C   0  0  0
    3.8494   -3.6954    0.0000 N   0  0  0
    5.1523   -1.4450    0.0000 C   0  0  0
    2.5347   -4.4298    0.0000 C   0  0  0
    1.2200   -3.6717    0.0000 O   0  0  0
    2.5228   -5.9221    0.0000 C   0  0  0
    1.2081   -6.6683    0.0000 N   0  0  0
    3.8139   -6.6683    0.0000 C   0  0  0
    1.1963   -8.1607    0.0000 C   0  0  0
    3.8020   -8.1607    0.0000 C   0  0  0
    2.4873   -8.8951    0.0000 C   0  0  0
   -0.1184   -8.8951    0.0000 C   0  0  0
    2.4755  -10.3874    0.0000 C   0  0  0
   -0.1303  -10.3874    0.0000 C   0  0  0
    1.1607  -11.1218    0.0000 C   0  0  0
  1  2  1
  3  1  1  1  0
  2  4  2
  2  5  1
  3  6  1
  3  7  1
  4  8  1
  5  9  1
  5 10  1
  6 11  2
  6 12  1
 11 13  1
 12 14  2
 13 15  1
 13 16  2
 15 17  1
 17 18  2
 17 19  1
 19 20  2
 19 21  1
 20 22  1
 21 23  2
 22 24  1
 22 25  2
 24 26  2
 25 27  1
 26 28  1
  8  9  2
 14 16  1
 23 24  1
 27 28  2
M  END
> <COMPOUND_NAMES>
Example 9a (S) (Page No: 360)

> <Reference>
WO2019148005

> <IC50_range_nM>
301-1000

> <smiles>
C[C@@H](c1cccc(c1)NC(c1ccc2ccccc2n1)=O)Sc1nncn1C

$$$$
C22H21N5OS
  MOLSOFT 03092310482D

 29 32  0  0  1  0  0  0  0  0999 V2000
    0.0000   -0.0000    0.0000 S   0  0  0
   -1.3150    0.7582    0.0000 C   0  0  0
    1.2913    0.7582    0.0000 C   0  0  2
   -2.7010    0.1540    0.0000 N   0  0  0
   -1.4808    2.2627    0.0000 N   0  0  0
    2.5825    0.0237    0.0000 C   0  0  0
    1.2794    2.2745    0.0000 C   0  0  0
   -3.7198    1.2794    0.0000 N   0  0  0
   -2.9616    2.5825    0.0000 C   0  0  0
   -0.3791    3.2815    0.0000 C   0  0  0
    2.5707   -1.4690    0.0000 C   0  0  0
    3.8738    0.7819    0.0000 C   0  0  0
    3.8619   -2.2034    0.0000 C   0  0  0
    5.1651    0.0474    0.0000 C   0  0  0
    3.8501   -3.6961    0.0000 N   0  0  0
    5.1532   -1.4453    0.0000 C   0  0  0
    2.5351   -4.4306    0.0000 C   0  0  0
    1.2202   -3.6724    0.0000 O   0  0  0
    2.5233   -5.9232    0.0000 C   0  0  0
    1.2083   -6.6696    0.0000 N   0  0  0
    3.8146   -6.6696    0.0000 C   0  0  0
    1.1965   -8.1622    0.0000 C   0  0  0
    3.8027   -8.1622    0.0000 C   0  0  0
    2.4878   -8.8967    0.0000 C   0  0  0
   -0.1185   -8.8967    0.0000 C   0  0  0
    5.0940   -8.9085    0.0000 C   0  0  0
    2.4759  -10.3893    0.0000 C   0  0  0
   -0.1303  -10.3893    0.0000 C   0  0  0
    1.1610  -11.1238    0.0000 C   0  0  0
  1  2  1
  3  1  1  1  0
  2  4  2
  2  5  1
  3  6  1
  3  7  1
  4  8  1
  5  9  1
  5 10  1
  6 11  2
  6 12  1
 11 13  1
 12 14  2
 13 15  1
 13 16  2
 15 17  1
 17 18  2
 17 19  1
 19 20  2
 19 21  1
 20 22  1
 21 23  2
 22 24  1
 22 25  2
 23 26  1
 24 27  2
 25 28  1
 27 29  1
  8  9  2
 14 16  1
 23 24  1
 28 29  2
M  END
> <COMPOUND_NAMES>
Example 30 (S) (Page No: 367)

> <Reference>
WO2019148005

> <IC50_range_nM>
301-1000

> <smiles>
Cc1cc(C(Nc2cccc(c2)[C@H](C)Sc2nncn2C)=O)nc2ccccc12

$$$$
C22H21N5OS
  MOLSOFT 03092310482D

 29 32  0  0  1  0  0  0  0  0999 V2000
    0.0000   -0.0000    0.0000 S   0  0  0
   -1.3151    0.7583    0.0000 C   0  0  0
    1.2914    0.7583    0.0000 C   0  0  2
   -2.7013    0.1540    0.0000 N   0  0  0
   -1.4810    2.2630    0.0000 N   0  0  0
    2.5828    0.0237    0.0000 C   0  0  0
    1.2796    2.2748    0.0000 C   0  0  0
   -3.7202    1.2796    0.0000 N   0  0  0
   -2.9620    2.5828    0.0000 C   0  0  0
   -0.3791    3.2819    0.0000 C   0  0  0
    2.5710   -1.4691    0.0000 C   0  0  0
    3.8743    0.7820    0.0000 C   0  0  0
    3.8624   -2.2037    0.0000 C   0  0  0
    5.1657    0.0474    0.0000 C   0  0  0
    3.8506   -3.6965    0.0000 N   0  0  0
    5.1538   -1.4454    0.0000 C   0  0  0
    2.5355   -4.4311    0.0000 C   0  0  0
    1.2203   -3.6729    0.0000 O   0  0  0
    2.5236   -5.9240    0.0000 C   0  0  0
    1.2085   -6.6704    0.0000 N   0  0  0
    3.8150   -6.6704    0.0000 C   0  0  0
    1.1966   -8.1632    0.0000 C   0  0  0
    3.8032   -8.1632    0.0000 C   0  0  0
    2.4881   -8.8978    0.0000 C   0  0  0
   -0.1185   -8.8978    0.0000 C   0  0  0
    2.4762  -10.3906    0.0000 C   0  0  0
   -0.1303  -10.3906    0.0000 C   0  0  0
    1.1611  -11.1252    0.0000 C   0  0  0
    3.7676  -11.1252    0.0000 C   0  0  0
  1  2  1
  3  1  1  1  0
  2  4  2
  2  5  1
  3  6  1
  3  7  1
  4  8  1
  5  9  1
  5 10  1
  6 11  2
  6 12  1
 11 13  1
 12 14  2
 13 15  1
 13 16  2
 15 17  1
 17 18  2
 17 19  1
 19 20  2
 19 21  1
 20 22  1
 21 23  2
 22 24  1
 22 25  2
 24 26  2
 25 27  1
 26 28  1
 26 29  1
  8  9  2
 14 16  1
 23 24  1
 27 28  2
M  END
> <COMPOUND_NAMES>
Example 48 (S) (Page No: 373)

> <Reference>
WO2019148005

> <IC50_range_nM>
301-1000

> <smiles>
Cc1cccc2c1ccc(C(Nc1cccc(c1)[C@H](C)Sc1nncn1C)=O)n2

$$$$
C23H21N5OS
  MOLSOFT 03092310482D

 30 33  0  0  0  0  0  0  0  0999 V2000
    0.0000   -0.0000    0.0000 S   0  0  0
   -1.3141    0.7577    0.0000 C   0  0  0
    1.2904    0.7577    0.0000 C   0  0  3
   -1.4798    2.2611    0.0000 N   0  0  0
   -2.6991    0.1539    0.0000 N   0  0  0
    2.5808    0.0237    0.0000 C   0  0  0
    1.2785    2.2730    0.0000 C   0  0  0
   -2.9596    2.5808    0.0000 N   0  0  0
   -3.7172    1.2785    0.0000 C   0  0  0
   -3.0188   -1.3022    0.0000 C   0  0  0
    2.5689   -1.4680    0.0000 C   0  0  0
    3.8711    0.7813    0.0000 C   0  0  0
   -0.0355    3.0306    0.0000 C   0  0  0
    3.8593   -2.2019    0.0000 C   0  0  0
    5.1615    0.0474    0.0000 C   0  0  0
   -0.0474    4.5459    0.0000 C   0  0  0
    3.8475   -3.6936    0.0000 N   0  0  0
    5.1497   -1.4443    0.0000 C   0  0  0
    2.5334   -4.4275    0.0000 C   0  0  0
    1.2193   -3.6699    0.0000 O   0  0  0
    2.5216   -5.9192    0.0000 C   0  0  0
    1.2075   -6.6650    0.0000 N   0  0  0
    3.8119   -6.6650    0.0000 C   0  0  0
    1.1957   -8.1566    0.0000 C   0  0  0
    3.8001   -8.1566    0.0000 C   0  0  0
    2.4860   -8.8906    0.0000 C   0  0  0
   -0.1184   -8.8906    0.0000 C   0  0  0
    2.4742  -10.3822    0.0000 C   0  0  0
   -0.1302  -10.3822    0.0000 C   0  0  0
    1.1602  -11.1162    0.0000 C   0  0  0
  1  2  1
  3  1  1
  2  4  2
  2  5  1
  3  6  1
  3  7  1
  4  8  1
  5  9  1
  5 10  1
  6 11  2
  6 12  1
  7 13  1
 11 14  1
 12 15  2
 13 16  2
 14 17  1
 14 18  2
 17 19  1
 19 20  2
 19 21  1
 21 22  2
 21 23  1
 22 24  1
 23 25  2
 24 26  1
 24 27  2
 26 28  2
 27 29  1
 28 30  1
  8  9  2
 15 18  1
 25 26  1
 29 30  2
M  END
> <COMPOUND_NAMES>
Example 134 (+/-) (Page No: 411)

> <Reference>
WO2019148005

> <IC50_range_nM>
1001-3000

> <smiles>
Cn1cnnc1SC(CC=C)c1cccc(c1)NC(c1ccc2ccccc2n1)=O

$$$$
C21H18FN5OS
  MOLSOFT 03092310482D

 29 32  0  0  1  0  0  0  0  0999 V2000
    0.0000   -0.0000    0.0000 S   0  0  0
   -1.3151    0.7583    0.0000 C   0  0  0
    1.2914    0.7583    0.0000 C   0  0  2
   -2.7013    0.1540    0.0000 N   0  0  0
   -1.4810    2.2630    0.0000 N   0  0  0
    2.5828    0.0237    0.0000 C   0  0  0
    1.2796    2.2748    0.0000 C   0  0  0
   -3.7202    1.2796    0.0000 N   0  0  0
   -2.9620    2.5828    0.0000 C   0  0  0
   -0.3791    3.2819    0.0000 C   0  0  0
    2.5710   -1.4691    0.0000 C   0  0  0
    3.8743    0.7820    0.0000 C   0  0  0
    3.8624   -2.2037    0.0000 C   0  0  0
    5.1657    0.0474    0.0000 C   0  0  0
    3.8506   -3.6965    0.0000 N   0  0  0
    5.1538   -1.4454    0.0000 C   0  0  0
    2.5355   -4.4311    0.0000 C   0  0  0
    6.4453   -2.1800    0.0000 F   0  0  0
    1.2203   -3.6729    0.0000 O   0  0  0
    2.5236   -5.9240    0.0000 C   0  0  0
    1.2085   -6.6704    0.0000 N   0  0  0
    3.8150   -6.6704    0.0000 C   0  0  0
    1.1966   -8.1632    0.0000 C   0  0  0
    3.8032   -8.1632    0.0000 C   0  0  0
    2.4881   -8.8978    0.0000 C   0  0  0
   -0.1185   -8.8978    0.0000 C   0  0  0
    2.4762  -10.3906    0.0000 C   0  0  0
   -0.1303  -10.3906    0.0000 C   0  0  0
    1.1611  -11.1252    0.0000 C   0  0  0
  1  2  1
  3  1  1  1  0
  2  4  2
  2  5  1
  3  6  1
  3  7  1
  4  8  1
  5  9  1
  5 10  1
  6 11  2
  6 12  1
 11 13  1
 12 14  2
 13 15  1
 13 16  2
 15 17  1
 16 18  1
 17 19  2
 17 20  1
 20 21  2
 20 22  1
 21 23  1
 22 24  2
 23 25  1
 23 26  2
 25 27  2
 26 28  1
 27 29  1
  8  9  2
 14 16  1
 24 25  1
 28 29  2
M  END
> <COMPOUND_NAMES>
Example 96a (S) (Page No: 395)

> <Reference>
WO2019148005

> <IC50_range_nM>
1001-3000

> <smiles>
C[C@@H](c1ccc(c(c1)NC(c1ccc2ccccc2n1)=O)F)Sc1nncn1C

$$$$
C22H21N5O2S
  MOLSOFT 03092310482D

 30 33  0  0  0  0  0  0  0  0999 V2000
    0.0000   -0.0000    0.0000 S   0  0  0
   -0.3275   -1.4504    0.0000 C   0  0  0
    1.4153    0.4679    0.0000 C   0  0  3
    0.6550   -2.5498    0.0000 N   0  0  0
   -1.7077   -2.0469    0.0000 N   0  0  0
    1.7194    1.9416    0.0000 C   0  0  0
    2.5147   -0.5146    0.0000 C   0  0  0
   -0.1053   -3.8364    0.0000 N   0  0  0
   -1.5673   -3.5206    0.0000 C   0  0  0
   -3.0177   -1.2866    0.0000 C   0  0  0
    0.5965    2.9592    0.0000 C   0  0  0
    3.1230    2.4095    0.0000 C   0  0  0
    0.9006    4.4330    0.0000 C   0  0  0
    3.4271    3.8832    0.0000 C   0  0  0
   -0.2222    5.4506    0.0000 N   0  0  0
    2.3042    4.9125    0.0000 C   0  0  0
   -1.6492    5.0061    0.0000 C   0  0  0
    2.6083    6.3863    0.0000 O   0  0  0
   -1.9767    3.5557    0.0000 O   0  0  0
   -2.7721    6.0120    0.0000 C   0  0  0
    4.0119    6.8541    0.0000 C   0  0  0
   -4.1990    5.5675    0.0000 N   0  0  0
   -2.4680    7.4857    0.0000 C   0  0  0
   -5.3219    6.5851    0.0000 C   0  0  0
   -3.5908    8.4916    0.0000 C   0  0  0
   -5.0178    8.0589    0.0000 C   0  0  0
   -6.7606    6.1290    0.0000 C   0  0  0
   -6.1407    9.0765    0.0000 C   0  0  0
   -7.8834    7.1465    0.0000 C   0  0  0
   -7.5793    8.6320    0.0000 C   0  0  0
  1  2  1
  3  1  1
  2  4  2
  2  5  1
  3  6  1
  3  7  1
  4  8  1
  5  9  1
  5 10  1
  6 11  2
  6 12  1
 11 13  1
 12 14  2
 13 15  1
 13 16  2
 15 17  1
 16 18  1
 17 19  2
 17 20  1
 18 21  1
 20 22  2
 20 23  1
 22 24  1
 23 25  2
 24 26  1
 24 27  2
 26 28  2
 27 29  1
 28 30  1
  8  9  2
 14 16  1
 25 26  1
 29 30  2
M  END
> <COMPOUND_NAMES>
Example 97 (+/-) (Page No: 396)

> <Reference>
WO2019148005

> <IC50_range_nM>
1001-3000

> <smiles>
CC(c1ccc(c(c1)NC(c1ccc2ccccc2n1)=O)OC)Sc1nncn1C

$$$$
C22H18F3N5OS
  MOLSOFT 03092310482D

 32 35  0  0  1  0  0  0  0  0999 V2000
    0.0000   -0.0000    0.0000 S   0  0  0
   -1.3151    0.7582    0.0000 C   0  0  0
    1.2914    0.7582    0.0000 C   0  0  2
   -2.7013    0.1540    0.0000 N   0  0  0
   -1.4810    2.2629    0.0000 N   0  0  0
    2.5828    0.0237    0.0000 C   0  0  0
    1.2795    2.2747    0.0000 C   0  0  0
   -3.7201    1.2795    0.0000 N   0  0  0
   -2.9619    2.5828    0.0000 C   0  0  0
   -0.3791    3.2818    0.0000 C   0  0  0
    2.5709   -1.4691    0.0000 C   0  0  0
    3.8742    0.7819    0.0000 C   0  0  0
    3.8623   -2.2037    0.0000 C   0  0  0
    5.1656    0.0474    0.0000 C   0  0  0
    3.8505   -3.6965    0.0000 N   0  0  0
    5.1537   -1.4454    0.0000 C   0  0  0
    2.5354   -4.4310    0.0000 C   0  0  0
    1.2203   -3.6728    0.0000 O   0  0  0
    2.5235   -5.9238    0.0000 C   0  0  0
    1.2085   -6.6702    0.0000 N   0  0  0
    3.8149   -6.6702    0.0000 C   0  0  0
    1.1966   -8.1630    0.0000 C   0  0  0
    3.8031   -8.1630    0.0000 C   0  0  0
    2.4880   -8.8975    0.0000 C   0  0  0
   -0.1185   -8.8975    0.0000 C   0  0  0
    5.0945   -8.9094    0.0000 C   0  0  0
    2.4761  -10.3903    0.0000 C   0  0  0
   -0.1303  -10.3903    0.0000 C   0  0  0
    4.3362  -10.2008    0.0000 F   0  0  0
    6.3859   -9.6439    0.0000 F   0  0  0
    5.8409   -7.5943    0.0000 F   0  0  0
    1.1611  -11.1249    0.0000 C   0  0  0
  1  2  1
  3  1  1  1  0
  2  4  2
  2  5  1
  3  6  1
  3  7  1
  4  8  1
  5  9  1
  5 10  1
  6 11  2
  6 12  1
 11 13  1
 12 14  2
 13 15  1
 13 16  2
 15 17  1
 17 18  2
 17 19  1
 19 20  2
 19 21  1
 20 22  1
 21 23  2
 22 24  1
 22 25  2
 23 26  1
 24 27  2
 25 28  1
 26 29  1
 26 30  1
 26 31  1
 27 32  1
  8  9  2
 14 16  1
 23 24  1
 28 32  2
M  END
> <COMPOUND_NAMES>
Example 83 (S) (Page No: 389)

> <Reference>
WO2019148005

> <IC50_range_nM>
1001-3000

> <smiles>
C[C@@H](c1cccc(c1)NC(c1cc(c2ccccc2n1)C(F)(F)F)=O)Sc1nncn1C

$$$$
C21H17F3N6OS
  MOLSOFT 03092310482D

 32 35  0  0  1  0  0  0  0  0999 V2000
    0.0000   -0.0000    0.0000 S   0  0  0
   -1.3151    0.7582    0.0000 C   0  0  0
    1.2914    0.7582    0.0000 C   0  0  2
   -2.7013    0.1540    0.0000 N   0  0  0
   -1.4810    2.2629    0.0000 N   0  0  0
    2.5828    0.0237    0.0000 C   0  0  0
    1.2795    2.2747    0.0000 C   0  0  0
   -3.7201    1.2795    0.0000 N   0  0  0
   -2.9619    2.5828    0.0000 C   0  0  0
   -0.3791    3.2818    0.0000 C   0  0  0
    2.5709   -1.4691    0.0000 C   0  0  0
    3.8742    0.7819    0.0000 C   0  0  0
    3.8623   -2.2037    0.0000 C   0  0  0
    5.1656    0.0474    0.0000 C   0  0  0
    5.1537   -1.4454    0.0000 N   0  0  0
    3.8505   -3.6965    0.0000 N   0  0  0
    2.5354   -4.4310    0.0000 C   0  0  0
    1.2203   -3.6728    0.0000 O   0  0  0
    2.5235   -5.9238    0.0000 C   0  0  0
    1.2085   -6.6702    0.0000 N   0  0  0
    3.8149   -6.6702    0.0000 C   0  0  0
    1.1966   -8.1630    0.0000 C   0  0  0
    3.8031   -8.1630    0.0000 C   0  0  0
    2.4880   -8.8975    0.0000 C   0  0  0
   -0.1185   -8.8975    0.0000 C   0  0  0
    5.0945   -8.9094    0.0000 C   0  0  0
    2.4761  -10.3903    0.0000 C   0  0  0
   -0.1303  -10.3903    0.0000 C   0  0  0
    4.3362  -10.2008    0.0000 F   0  0  0
    6.3859   -9.6439    0.0000 F   0  0  0
    5.8409   -7.5943    0.0000 F   0  0  0
    1.1611  -11.1249    0.0000 C   0  0  0
  1  2  1
  3  1  1  1  0
  2  4  2
  2  5  1
  3  6  1
  3  7  1
  4  8  1
  5  9  1
  5 10  1
  6 11  2
  6 12  1
 11 13  1
 12 14  2
 13 15  2
 13 16  1
 16 17  1
 17 18  2
 17 19  1
 19 20  2
 19 21  1
 20 22  1
 21 23  2
 22 24  1
 22 25  2
 23 26  1
 24 27  2
 25 28  1
 26 29  1
 26 30  1
 26 31  1
 27 32  1
  8  9  2
 14 15  1
 23 24  1
 28 32  2
M  END
> <COMPOUND_NAMES>
Example 111 (S) (Page No: 402)

> <Reference>
WO2019148005

> <IC50_range_nM>
3001-10000

> <smiles>
C[C@@H](c1ccnc(c1)NC(c1cc(c2ccccc2n1)C(F)(F)F)=O)Sc1nncn1C

$$$$
C20H22N6OS
  MOLSOFT 03092310482D

 28 31  0  0  1  0  0  0  0  0999 V2000
    0.0000   -0.0000    0.0000 S   0  0  0
   -1.3156    0.7586    0.0000 C   0  0  0
    1.2919    0.7586    0.0000 C   0  0  2
   -2.7024    0.1541    0.0000 N   0  0  0
   -1.4816    2.2638    0.0000 N   0  0  0
    2.5838    0.0237    0.0000 C   0  0  0
    1.2801    2.2757    0.0000 C   0  0  0
   -3.7217    1.2801    0.0000 N   0  0  0
   -2.9631    2.5838    0.0000 C   0  0  0
   -0.3793    3.2831    0.0000 C   0  0  0
    2.5720   -1.4697    0.0000 C   0  0  0
    3.8758    0.7823    0.0000 C   0  0  0
    3.8639   -2.2046    0.0000 C   0  0  0
    5.1677    0.0474    0.0000 C   0  0  0
    5.1558   -1.4460    0.0000 N   0  0  0
    3.8521   -3.6980    0.0000 N   0  0  0
    2.5364   -4.4328    0.0000 C   0  0  0
    1.2208   -3.6743    0.0000 O   0  0  0
    2.5246   -5.9263    0.0000 C   0  0  0
    3.8165   -6.6611    0.0000 N   0  0  0
    1.2090   -6.6611    0.0000 C   0  0  0
    3.8047   -8.1545    0.0000 C   0  0  0
    1.1971   -8.1545    0.0000 C   0  0  0
    2.4890   -8.8894    0.0000 C   0  0  0
    5.0966   -8.8894    0.0000 C   0  0  0
    2.4772  -10.3828    0.0000 C   0  0  0
    5.0847  -10.3828    0.0000 C   0  0  0
    3.7691  -11.1177    0.0000 C   0  0  0
  1  2  1
  3  1  1  1  0
  2  4  2
  2  5  1
  3  6  1
  3  7  1
  4  8  1
  5  9  1
  5 10  1
  6 11  2
  6 12  1
 11 13  1
 12 14  2
 13 15  2
 13 16  1
 16 17  1
 17 18  2
 17 19  1
 19 20  2
 19 21  1
 20 22  1
 21 23  2
 22 24  2
 22 25  1
 24 26  1
 25 27  1
 26 28  1
  8  9  2
 14 15  1
 23 24  1
 27 28  1
M  END
> <COMPOUND_NAMES>
Example 108 (S) (Page No: 401)

> <Reference>
WO2019148005

> <IC50_range_nM>
1001-3000

> <smiles>
C[C@@H](c1ccnc(c1)NC(c1ccc2CCCCc2n1)=O)Sc1nncn1C

$$$$
C21H23N5OS
  MOLSOFT 03092310482D

 28 31  0  0  0  0  0  0  0  0999 V2000
    0.0000   -0.0000    0.0000 S   0  0  0
   -1.3156    0.7586    0.0000 C   0  0  0
    1.2919    0.7586    0.0000 C   0  0  3
   -2.7024    0.1541    0.0000 N   0  0  0
   -1.4816    2.2638    0.0000 N   0  0  0
    2.5838    0.0237    0.0000 C   0  0  0
    1.2801    2.2757    0.0000 C   0  0  0
   -3.7217    1.2801    0.0000 N   0  0  0
   -2.9631    2.5838    0.0000 C   0  0  0
   -0.3793    3.2831    0.0000 C   0  0  0
    2.5720   -1.4697    0.0000 C   0  0  0
    3.8758    0.7823    0.0000 C   0  0  0
    3.8639   -2.2046    0.0000 C   0  0  0
    5.1677    0.0474    0.0000 C   0  0  0
    3.8521   -3.6980    0.0000 N   0  0  0
    5.1558   -1.4460    0.0000 C   0  0  0
    2.5364   -4.4328    0.0000 C   0  0  0
    1.2208   -3.6743    0.0000 O   0  0  0
    2.5246   -5.9263    0.0000 C   0  0  0
    3.8165   -6.6611    0.0000 N   0  0  0
    1.2090   -6.6611    0.0000 C   0  0  0
    3.8047   -8.1545    0.0000 C   0  0  0
    1.1971   -8.1545    0.0000 C   0  0  0
    2.4890   -8.8894    0.0000 C   0  0  0
    5.0966   -8.8894    0.0000 C   0  0  0
    2.4772  -10.3828    0.0000 C   0  0  0
    5.0847  -10.3828    0.0000 C   0  0  0
    3.7691  -11.1177    0.0000 C   0  0  0
  1  2  1
  3  1  1
  2  4  2
  2  5  1
  3  6  1
  3  7  1
  4  8  1
  5  9  1
  5 10  1
  6 11  2
  6 12  1
 11 13  1
 12 14  2
 13 15  1
 13 16  2
 15 17  1
 17 18  2
 17 19  1
 19 20  2
 19 21  1
 20 22  1
 21 23  2
 22 24  2
 22 25  1
 24 26  1
 25 27  1
 26 28  1
  8  9  2
 14 16  1
 23 24  1
 27 28  1
M  END
> <COMPOUND_NAMES>
Example 23 (+/-) (Page No: 365)

> <Reference>
WO2019148005

> <IC50_range_nM>
1001-3000

> <smiles>
CC(c1cccc(c1)NC(c1ccc2CCCCc2n1)=O)Sc1nncn1C

$$$$
C24H24N6O3S
  MOLSOFT 03092310482D

 34 37  0  0  1  0  0  0  0  0999 V2000
    0.0000   -0.0000    0.0000 S   0  0  0
   -0.3293   -1.4583    0.0000 C   0  0  0
    1.4230    0.4704    0.0000 C   0  0  2
    0.6586   -2.5638    0.0000 N   0  0  0
   -1.7171   -2.0581    0.0000 N   0  0  0
    1.7288    1.9523    0.0000 C   0  0  0
    2.5285   -0.5175    0.0000 C   0  0  0
   -0.1058   -3.8575    0.0000 N   0  0  0
   -1.5759   -3.5400    0.0000 C   0  0  0
   -3.0342   -1.2937    0.0000 C   0  0  0
    3.1401    2.4227    0.0000 C   0  0  0
    0.5998    2.9754    0.0000 C   0  0  0
    3.4459    3.9045    0.0000 C   0  0  0
    0.9056    4.4573    0.0000 C   0  0  0
    4.8571    4.3750    0.0000 N   0  0  0
    2.3168    4.9277    0.0000 C   0  0  0
    5.1629    5.8568    0.0000 C   0  0  0
    4.0339    6.8682    0.0000 O   0  0  0
    6.5742    6.3272    0.0000 C   0  0  0
    6.8800    7.8091    0.0000 N   0  0  0
    7.6797    5.3276    0.0000 C   0  0  0
    8.2913    8.2795    0.0000 C   0  0  0
    9.0910    5.8098    0.0000 C   0  0  0
    9.3968    7.2798    0.0000 C   0  0  0
    8.5970    9.7613    0.0000 C   0  0  0
   10.8198    7.7503    0.0000 C   0  0  0
   10.0201   10.2435    0.0000 C   0  0  0
   11.9253    6.7624    0.0000 O   0  0  0
   11.1256    9.2321    0.0000 C   0  0  0
   13.3366    7.2328    0.0000 C   0  0  0
   14.4421    6.2331    0.0000 C   0  0  0
   14.1128    4.7748    0.0000 O   0  0  0
   15.8651    6.7036    0.0000 N   0  0  0
   16.9706    5.7039    0.0000 C   0  0  0
  1  2  1
  3  1  1  6  0
  2  4  2
  2  5  1
  3  6  1
  3  7  1
  4  8  1
  5  9  1
  5 10  1
  6 11  2
  6 12  1
 11 13  1
 12 14  2
 13 15  1
 13 16  2
 15 17  1
 17 18  2
 17 19  1
 19 20  2
 19 21  1
 20 22  1
 21 23  2
 22 24  1
 22 25  2
 24 26  2
 25 27  1
 26 28  1
 26 29  1
 28 30  1
 30 31  1
 31 32  2
 31 33  1
 33 34  1
  8  9  2
 14 16  1
 23 24  1
 27 29  2
M  END
> <COMPOUND_NAMES>
Example 310 (S) (Page No: 515)

> <Reference>
WO2019148005

> <IC50_range_nM>
301-1000

> <smiles>
C[C@@H](c1cccc(c1)NC(c1ccc2c(cccc2n1)OCC(NC)=O)=O)Sc1nncn1C

$$$$
C23H21N5O4S
  MOLSOFT 03092310482D

 33 36  0  0  1  0  0  0  0  0999 V2000
    0.0000   -0.0000    0.0000 S   0  0  0
   -1.3157    0.7586    0.0000 C   0  0  0
    1.2920    0.7586    0.0000 C   0  0  2
   -2.7026    0.1541    0.0000 N   0  0  0
   -1.4817    2.2640    0.0000 N   0  0  0
    2.5840    0.0237    0.0000 C   0  0  0
    1.2802    2.2759    0.0000 C   0  0  0
   -3.7220    1.2802    0.0000 N   0  0  0
   -2.9634    2.5840    0.0000 C   0  0  0
   -0.3793    3.2834    0.0000 C   0  0  0
    2.5722   -1.4698    0.0000 C   0  0  0
    3.8761    0.7823    0.0000 C   0  0  0
    3.8642   -2.2047    0.0000 C   0  0  0
    5.1681    0.0474    0.0000 C   0  0  0
    3.8524   -3.6983    0.0000 N   0  0  0
    5.1562   -1.4461    0.0000 C   0  0  0
    2.5366   -4.4332    0.0000 C   0  0  0
    1.2209   -3.6746    0.0000 O   0  0  0
    2.5248   -5.9267    0.0000 C   0  0  0
    1.2090   -6.6735    0.0000 N   0  0  0
    3.8168   -6.6735    0.0000 C   0  0  0
    1.1972   -8.1670    0.0000 C   0  0  0
    3.8049   -8.1670    0.0000 C   0  0  0
    2.4892   -8.9019    0.0000 C   0  0  0
   -0.1185   -8.9019    0.0000 C   0  0  0
    2.4774  -10.3954    0.0000 C   0  0  0
   -0.1304  -10.3954    0.0000 C   0  0  0
    3.7694  -11.1304    0.0000 O   0  0  0
    1.1616  -11.1304    0.0000 C   0  0  0
    3.7575  -12.6239    0.0000 C   0  0  0
    5.0496  -13.3706    0.0000 C   0  0  0
    6.3416  -12.6120    0.0000 O   0  0  0
    5.0377  -14.8642    0.0000 O   0  0  0
  1  2  1
  3  1  1  1  0
  2  4  2
  2  5  1
  3  6  1
  3  7  1
  4  8  1
  5  9  1
  5 10  1
  6 11  2
  6 12  1
 11 13  1
 12 14  2
 13 15  1
 13 16  2
 15 17  1
 17 18  2
 17 19  1
 19 20  2
 19 21  1
 20 22  1
 21 23  2
 22 24  1
 22 25  2
 24 26  2
 25 27  1
 26 28  1
 26 29  1
 28 30  1
 30 31  1
 31 32  2
 31 33  1
  8  9  2
 14 16  1
 23 24  1
 27 29  2
M  END
> <COMPOUND_NAMES>
Example 309 (S) (Page No: 515)

> <Reference>
WO2019148005

> <IC50_range_nM>
1001-3000

> <smiles>
C[C@@H](c1cccc(c1)NC(c1ccc2c(cccc2n1)OCC(O)=O)=O)Sc1nncn1C

$$$$
C25H25N5O2S
  MOLSOFT 03092310482D

 33 37  0  0  0  0  0  0  0  0999 V2000
    0.0000   -0.0000    0.0000 S   0  0  0
   -1.3156    0.7585    0.0000 C   0  0  0
    1.2919    0.7585    0.0000 C   0  0  3
   -2.7023    0.1541    0.0000 N   0  0  0
   -1.4815    2.2637    0.0000 N   0  0  0
    2.5837    0.0237    0.0000 C   0  0  0
    1.2800    2.2756    0.0000 C   0  0  0
   -3.7215    1.2800    0.0000 N   0  0  0
   -2.9630    2.5837    0.0000 C   0  0  0
   -0.3793    3.2830    0.0000 C   0  0  0
    2.5719   -1.4696    0.0000 C   0  0  0
    3.8756    0.7822    0.0000 C   0  0  0
    3.8638   -2.2045    0.0000 C   0  0  0
    5.1675    0.0474    0.0000 C   0  0  0
    3.8519   -3.6978    0.0000 N   0  0  0
    5.1556   -1.4459    0.0000 C   0  0  0
    6.5897    0.5215    0.0000 C   0  0  3
    2.5363   -4.4326    0.0000 C   0  0  0
    6.5779   -1.8963    0.0000 C   0  0  0
    6.2697    2.0030    0.0000 O   0  0  0
    7.4668   -0.6874    0.0000 C   0  0  0
    7.6919    1.5408    0.0000 C   0  0  0
    1.2208   -3.6741    0.0000 O   0  0  0
    2.5245   -5.9260    0.0000 C   0  0  0
    3.8163   -6.6608    0.0000 N   0  0  0
    1.2089   -6.6608    0.0000 C   0  0  0
    3.8045   -8.1542    0.0000 C   0  0  0
    1.1971   -8.1542    0.0000 C   0  0  0
    2.4889   -8.8890    0.0000 C   0  0  0
    5.0964   -8.8890    0.0000 C   0  0  0
    2.4771  -10.3824    0.0000 C   0  0  0
    5.0845  -10.3824    0.0000 C   0  0  0
    3.7689  -11.1172    0.0000 C   0  0  0
  1  2  1
  3  1  1
  2  4  2
  2  5  1
  3  6  1
  3  7  1
  4  8  1
  5  9  1
  5 10  1
  6 11  2
  6 12  1
 11 13  1
 12 14  2
 13 15  1
 13 16  2
 17 14  1
 15 18  1
 16 19  1
 17 20  1
 17 21  1
 17 22  1
 18 23  2
 18 24  1
 24 25  2
 24 26  1
 25 27  1
 26 28  2
 27 29  1
 27 30  2
 29 31  2
 30 32  1
 31 33  1
  8  9  2
 14 16  1
 19 21  1
 28 29  1
 32 33  2
M  END
> <COMPOUND_NAMES>
Example 131 (+/-) (Page No: 410)

> <Reference>
WO2019148005

> <IC50_range_nM>
3001-10000

> <smiles>
CC(c1cc2c(CCC2(C)O)c(c1)NC(c1ccc2ccccc2n1)=O)Sc1nncn1C

$$$$
C20H18ClN5OS
  MOLSOFT 03092310482D

 28 31  0  0  1  0  0  0  0  0999 V2000
    0.0000   -0.0000    0.0000 Cl  0  0  0
    1.4846    0.0118    0.0000 C   0  0  0
    2.2152    1.3197    0.0000 C   0  0  0
    2.2152   -1.2725    0.0000 C   0  0  0
    3.6998    1.3315    0.0000 C   0  0  0
    1.7439    2.7572    0.0000 C   0  0  0
    3.6998   -1.2608    0.0000 C   0  0  0
    4.1475    2.7690    0.0000 N   0  0  0
    4.4421    0.0471    0.0000 C   0  0  0
    2.9457    3.6527    0.0000 C   0  0  0
    2.9339    5.1609    0.0000 C   0  0  0
    1.6260    5.9150    0.0000 O   0  0  0
    4.2182    5.9150    0.0000 N   0  0  0
    4.2065    7.4232    0.0000 C   0  0  0
    2.8986    8.1773    0.0000 C   0  0  0
    5.4908    8.1773    0.0000 C   0  0  0
    2.8868    9.6855    0.0000 C   0  0  0
    5.4790    9.6855    0.0000 C   0  0  0
    4.1711   10.4396    0.0000 C   0  0  0
    1.5789   10.4396    0.0000 C   0  0  1
    0.2710    9.7090    0.0000 S   0  0  0
    1.5671   11.9478    0.0000 C   0  0  0
   -1.0369   10.4631    0.0000 C   0  0  0
   -2.4155    9.8622    0.0000 N   0  0  0
   -1.2018   11.9596    0.0000 N   0  0  0
   -3.4288   10.9816    0.0000 N   0  0  0
   -2.6747   12.2777    0.0000 C   0  0  0
   -0.1060   12.9729    0.0000 C   0  0  0
  1  2  1
  2  3  2
  2  4  1
  3  5  1
  3  6  1
  4  7  2
  5  8  1
  5  9  2
  6 10  2
 10 11  1
 11 12  2
 11 13  1
 13 14  1
 14 15  2
 14 16  1
 15 17  1
 16 18  2
 17 19  2
 20 17  1
 20 21  1  1  0
 20 22  1
 21 23  1
 23 24  2
 23 25  1
 24 26  1
 25 27  1
 25 28  1
  7  9  1
  8 10  1
 18 19  1
 26 27  2
M  END
> <COMPOUND_NAMES>
Example 78 (S) (Page No: 387)

> <Reference>
WO2019148005

> <IC50_range_nM>
101-300

> <smiles>
C[C@@H](c1cccc(c1)NC(c1cc2c(cccc2[nH]1)[Cl])=O)Sc1nncn1C

$$$$
C20H17F3N6OS
  MOLSOFT 03092310482D

 31 34  0  0  1  0  0  0  0  0999 V2000
    0.0000   -0.0000    0.0000 S   0  0  0
   -1.3123    0.7566    0.0000 C   0  0  0
    1.2887    0.7566    0.0000 C   0  0  2
   -2.6955    0.1537    0.0000 N   0  0  0
   -1.4778    2.2581    0.0000 N   0  0  0
    2.5773    0.0236    0.0000 C   0  0  0
    1.2768    2.2699    0.0000 C   0  0  0
   -3.7123    1.2768    0.0000 N   0  0  0
   -2.9556    2.5773    0.0000 C   0  0  0
   -0.3783    3.2748    0.0000 C   0  0  0
    2.5655   -1.4660    0.0000 C   0  0  0
    3.8660    0.7803    0.0000 C   0  0  0
    3.8541   -2.1990    0.0000 C   0  0  0
    5.1546    0.0473    0.0000 C   0  0  0
    5.1428   -1.4423    0.0000 N   0  0  0
    3.8423   -3.6886    0.0000 N   0  0  0
    2.5300   -4.4334    0.0000 C   0  0  0
    1.2177   -3.6768    0.0000 O   0  0  0
    2.5182   -5.9231    0.0000 C   0  0  0
    3.7241   -6.7979    0.0000 N   0  0  0
    1.2887   -6.7979    0.0000 C   0  0  0
    3.2512   -8.2167    0.0000 C   0  0  0
    1.7379   -8.2167    0.0000 C   0  0  0
    3.9960   -9.5053    0.0000 C   0  0  0
    0.9813   -9.5053    0.0000 C   0  0  0
    3.2394  -10.7940    0.0000 C   0  0  0
    1.7143  -10.7940    0.0000 C   0  0  0
   -0.5320   -9.4935    0.0000 C   0  0  0
   -0.5438   -7.9802    0.0000 F   0  0  0
   -2.0453   -9.4817    0.0000 F   0  0  0
   -0.5438  -10.9831    0.0000 F   0  0  0
  1  2  1
  3  1  1  1  0
  2  4  2
  2  5  1
  3  6  1
  3  7  1
  4  8  1
  5  9  1
  5 10  1
  6 11  2
  6 12  1
 11 13  1
 12 14  2
 13 15  2
 13 16  1
 16 17  1
 17 18  2
 17 19  1
 19 20  1
 19 21  2
 20 22  1
 21 23  1
 22 24  1
 23 25  1
 24 26  2
 25 27  2
 25 28  1
 28 29  1
 28 30  1
 28 31  1
  8  9  2
 14 15  1
 22 23  2
 26 27  1
M  END
> <COMPOUND_NAMES>
Example 120 (S) (Page No: 405)

> <Reference>
WO2019148005

> <IC50_range_nM>
101-300

> <smiles>
C[C@@H](c1ccnc(c1)NC(c1cc2c(cccc2[nH]1)C(F)(F)F)=O)Sc1nncn1C

$$$$
C22H21N5O2S
  MOLSOFT 03092310482D

 30 33  0  0  1  0  0  0  0  0999 V2000
    0.0000   -0.0000    0.0000 S   0  0  0
   -0.3291   -1.4573    0.0000 C   0  0  0
    1.4220    0.4701    0.0000 C   0  0  2
    0.6581   -2.5619    0.0000 N   0  0  0
   -1.7158   -2.0566    0.0000 N   0  0  0
    1.7275    1.9508    0.0000 C   0  0  0
    2.5267   -0.5171    0.0000 C   0  0  0
   -0.1058   -3.8547    0.0000 N   0  0  0
   -1.5748   -3.5374    0.0000 C   0  0  0
   -3.0320   -1.2927    0.0000 C   0  0  0
    3.1378    2.4209    0.0000 C   0  0  0
    0.5994    2.9733    0.0000 C   0  0  0
    3.4433    3.9017    0.0000 C   0  0  0
    0.9049    4.4540    0.0000 C   0  0  0
    4.8536    4.3718    0.0000 N   0  0  0
    2.3151    4.9241    0.0000 C   0  0  0
    5.1591    5.8525    0.0000 C   0  0  0
    4.0309    6.8632    0.0000 O   0  0  0
    6.5694    6.3226    0.0000 C   0  0  0
    7.6741    5.3237    0.0000 N   0  0  0
    6.8749    7.8033    0.0000 C   0  0  0
    9.0843    5.8055    0.0000 C   0  0  0
    8.2852    8.2734    0.0000 C   0  0  0
   10.1890    4.8066    0.0000 O   0  0  0
    9.3899    7.2863    0.0000 C   0  0  0
    8.5907    9.7542    0.0000 C   0  0  0
    9.8599    3.3493    0.0000 C   0  0  0
   10.8119    7.7563    0.0000 C   0  0  0
   10.0127   10.2360    0.0000 C   0  0  0
   11.1174    9.2371    0.0000 C   0  0  0
  1  2  1
  3  1  1  6  0
  2  4  2
  2  5  1
  3  6  1
  3  7  1
  4  8  1
  5  9  1
  5 10  1
  6 11  2
  6 12  1
 11 13  1
 12 14  2
 13 15  1
 13 16  2
 15 17  1
 17 18  2
 17 19  1
 19 20  1
 19 21  2
 20 22  2
 21 23  1
 22 24  1
 22 25  1
 23 26  2
 24 27  1
 25 28  2
 26 29  1
 28 30  1
  8  9  2
 14 16  1
 23 25  1
 29 30  2
M  END
> <COMPOUND_NAMES>
Example 62 (S) (Page No: 379)

> <Reference>
WO2019148005

> <IC50_range_nM>
101-300

> <smiles>
C[C@@H](c1cccc(c1)NC(c1cc2ccccc2c(n1)OC)=O)Sc1nncn1C

$$$$
C21H19N5OS
  MOLSOFT 03092310482D

 28 31  0  0  1  0  0  0  0  0999 V2000
    0.0000   -0.0000    0.0000 S   0  0  0
   -1.3147    0.7580    0.0000 C   0  0  0
    1.2910    0.7580    0.0000 C   0  0  2
   -2.7005    0.1540    0.0000 N   0  0  0
   -1.4805    2.2623    0.0000 N   0  0  0
    2.5821    0.0237    0.0000 C   0  0  0
    1.2792    2.2741    0.0000 C   0  0  0
   -3.7191    1.2792    0.0000 N   0  0  0
   -2.9611    2.5821    0.0000 C   0  0  0
   -0.3790    3.2809    0.0000 C   0  0  0
    2.5702   -1.4687    0.0000 C   0  0  0
    3.8731    0.7817    0.0000 C   0  0  0
    3.8612   -2.2030    0.0000 C   0  0  0
    5.1641    0.0474    0.0000 C   0  0  0
    3.8494   -3.6954    0.0000 N   0  0  0
    5.1523   -1.4450    0.0000 C   0  0  0
    2.5347   -4.4298    0.0000 C   0  0  0
    1.2200   -3.6717    0.0000 O   0  0  0
    2.5228   -5.9221    0.0000 C   0  0  0
    3.8139   -6.6683    0.0000 N   0  0  0
    1.2081   -6.6683    0.0000 C   0  0  0
    3.8020   -8.1607    0.0000 C   0  0  0
    1.1963   -8.1607    0.0000 C   0  0  0
    2.4873   -8.8951    0.0000 C   0  0  0
   -0.1184   -8.8951    0.0000 C   0  0  0
    2.4755  -10.3874    0.0000 C   0  0  0
   -0.1303  -10.3874    0.0000 C   0  0  0
    1.1607  -11.1218    0.0000 C   0  0  0
  1  2  1
  3  1  1  1  0
  2  4  2
  2  5  1
  3  6  1
  3  7  1
  4  8  1
  5  9  1
  5 10  1
  6 11  2
  6 12  1
 11 13  1
 12 14  2
 13 15  1
 13 16  2
 15 17  1
 17 18  2
 17 19  1
 19 20  1
 19 21  2
 20 22  2
 21 23  1
 22 24  1
 23 25  2
 24 26  2
 25 27  1
 26 28  1
  8  9  2
 14 16  1
 23 24  1
 27 28  2
M  END
> <COMPOUND_NAMES>
Example 8a (S) (Page No: 359)

> <Reference>
WO2019148005

> <IC50_range_nM>
301-1000

> <smiles>
C[C@@H](c1cccc(c1)NC(c1cc2ccccc2cn1)=O)Sc1nncn1C

$$$$
C21H19N5OS
  MOLSOFT 03092310482D

 28 31  0  0  0  0  0  0  0  0999 V2000
    0.0000   -0.0000    0.0000 S   0  0  0
   -1.3147    0.7580    0.0000 C   0  0  0
    1.2910    0.7580    0.0000 C   0  0  3
   -2.7005    0.1540    0.0000 N   0  0  0
   -1.4805    2.2623    0.0000 N   0  0  0
    2.5821    0.0237    0.0000 C   0  0  0
    1.2792    2.2741    0.0000 C   0  0  0
   -3.7191    1.2792    0.0000 N   0  0  0
   -2.9611    2.5821    0.0000 C   0  0  0
   -0.3790    3.2809    0.0000 C   0  0  0
    2.5702   -1.4687    0.0000 C   0  0  0
    3.8731    0.7817    0.0000 C   0  0  0
    3.8612   -2.2030    0.0000 C   0  0  0
    5.1641    0.0474    0.0000 C   0  0  0
    3.8494   -3.6954    0.0000 N   0  0  0
    5.1523   -1.4450    0.0000 C   0  0  0
    2.5347   -4.4298    0.0000 C   0  0  0
    1.2200   -3.6717    0.0000 O   0  0  0
    2.5228   -5.9221    0.0000 C   0  0  0
    3.8139   -6.6683    0.0000 N   0  0  0
    1.2081   -6.6683    0.0000 C   0  0  0
    3.8020   -8.1607    0.0000 C   0  0  0
    1.1963   -8.1607    0.0000 C   0  0  0
    2.4873   -8.8951    0.0000 C   0  0  0
   -0.1184   -8.8951    0.0000 C   0  0  0
    2.4755  -10.3874    0.0000 C   0  0  0
   -0.1303  -10.3874    0.0000 C   0  0  0
    1.1607  -11.1218    0.0000 C   0  0  0
  1  2  1
  3  1  1
  2  4  2
  2  5  1
  3  6  1
  3  7  1
  4  8  1
  5  9  1
  5 10  1
  6 11  2
  6 12  1
 11 13  1
 12 14  2
 13 15  1
 13 16  2
 15 17  1
 17 18  2
 17 19  1
 19 20  1
 19 21  2
 20 22  2
 21 23  1
 22 24  1
 23 25  2
 24 26  2
 25 27  1
 26 28  1
  8  9  2
 14 16  1
 23 24  1
 27 28  2
M  END
> <COMPOUND_NAMES>
Example 8 (+/-) (Page No: 359)

> <Reference>
WO2019148005

> <IC50_range_nM>
1001-3000

> <smiles>
CC(c1cccc(c1)NC(c1cc2ccccc2cn1)=O)Sc1nncn1C

$$$$
C21H19N5OS
  MOLSOFT 03092310482D

 28 31  0  0  1  0  0  0  0  0999 V2000
    0.0000   -0.0000    0.0000 S   0  0  0
   -1.3147    0.7580    0.0000 C   0  0  0
    1.2910    0.7580    0.0000 C   0  0  1
   -2.7005    0.1540    0.0000 N   0  0  0
   -1.4805    2.2623    0.0000 N   0  0  0
    2.5821    0.0237    0.0000 C   0  0  0
    1.2792    2.2741    0.0000 C   0  0  0
   -3.7191    1.2792    0.0000 N   0  0  0
   -2.9611    2.5821    0.0000 C   0  0  0
   -0.3790    3.2809    0.0000 C   0  0  0
    2.5702   -1.4687    0.0000 C   0  0  0
    3.8731    0.7817    0.0000 C   0  0  0
    3.8612   -2.2030    0.0000 C   0  0  0
    5.1641    0.0474    0.0000 C   0  0  0
    3.8494   -3.6954    0.0000 N   0  0  0
    5.1523   -1.4450    0.0000 C   0  0  0
    2.5347   -4.4298    0.0000 C   0  0  0
    1.2200   -3.6717    0.0000 O   0  0  0
    2.5228   -5.9221    0.0000 C   0  0  0
    3.8139   -6.6683    0.0000 N   0  0  0
    1.2081   -6.6683    0.0000 C   0  0  0
    3.8020   -8.1607    0.0000 C   0  0  0
    1.1963   -8.1607    0.0000 C   0  0  0
    2.4873   -8.8951    0.0000 C   0  0  0
   -0.1184   -8.8951    0.0000 C   0  0  0
    2.4755  -10.3874    0.0000 C   0  0  0
   -0.1303  -10.3874    0.0000 C   0  0  0
    1.1607  -11.1218    0.0000 C   0  0  0
  1  2  1
  3  1  1  6  0
  2  4  2
  2  5  1
  3  6  1
  3  7  1
  4  8  1
  5  9  1
  5 10  1
  6 11  2
  6 12  1
 11 13  1
 12 14  2
 13 15  1
 13 16  2
 15 17  1
 17 18  2
 17 19  1
 19 20  1
 19 21  2
 20 22  2
 21 23  1
 22 24  1
 23 25  2
 24 26  2
 25 27  1
 26 28  1
  8  9  2
 14 16  1
 23 24  1
 27 28  2
M  END
> <COMPOUND_NAMES>
Example 8b (R) (Page No: 360)

> <Reference>
WO2019148005

> <IC50_range_nM>
3001-10000

> <smiles>
C[C@H](c1cccc(c1)NC(c1cc2ccccc2cn1)=O)Sc1nncn1C

$$$$
C23H21N5OS
  MOLSOFT 03092310482D

 30 33  0  0  0  0  0  0  0  0999 V2000
    0.0000   -0.0000    0.0000 S   0  0  0
   -1.3141    0.7577    0.0000 C   0  0  0
    1.2904    0.7577    0.0000 C   0  0  3
   -1.4798    2.2611    0.0000 N   0  0  0
   -2.6991    0.1539    0.0000 N   0  0  0
    2.5808    0.0237    0.0000 C   0  0  0
    1.2785    2.2730    0.0000 C   0  0  0
   -2.9596    2.5808    0.0000 N   0  0  0
   -3.7172    1.2785    0.0000 C   0  0  0
   -3.0188   -1.3022    0.0000 C   0  0  0
    2.5689   -1.4680    0.0000 C   0  0  0
    3.8711    0.7813    0.0000 C   0  0  0
   -0.0355    3.0306    0.0000 C   0  0  0
    3.8593   -2.2019    0.0000 C   0  0  0
    5.1615    0.0474    0.0000 C   0  0  0
   -0.0474    4.5459    0.0000 C   0  0  0
    3.8475   -3.6936    0.0000 N   0  0  0
    5.1497   -1.4443    0.0000 C   0  0  0
    2.5334   -4.4275    0.0000 C   0  0  0
    1.2193   -3.6699    0.0000 O   0  0  0
    2.5216   -5.9192    0.0000 C   0  0  0
    3.8119   -6.6650    0.0000 N   0  0  0
    1.2075   -6.6650    0.0000 C   0  0  0
    3.8001   -8.1566    0.0000 C   0  0  0
    1.1957   -8.1566    0.0000 C   0  0  0
    2.4860   -8.8906    0.0000 C   0  0  0
   -0.1184   -8.8906    0.0000 C   0  0  0
    2.4742  -10.3822    0.0000 C   0  0  0
   -0.1302  -10.3822    0.0000 C   0  0  0
    1.1602  -11.1162    0.0000 C   0  0  0
  1  2  1
  3  1  1
  2  4  2
  2  5  1
  3  6  1
  3  7  1
  4  8  1
  5  9  1
  5 10  1
  6 11  2
  6 12  1
  7 13  1
 11 14  1
 12 15  2
 13 16  2
 14 17  1
 14 18  2
 17 19  1
 19 20  2
 19 21  1
 21 22  1
 21 23  2
 22 24  2
 23 25  1
 24 26  1
 25 27  2
 26 28  2
 27 29  1
 28 30  1
  8  9  2
 15 18  1
 25 26  1
 29 30  2
M  END
> <COMPOUND_NAMES>
Example 135 (+/-) (Page No: 411)

> <Reference>
WO2019148005

> <IC50_range_nM>
1001-3000

> <smiles>
Cn1cnnc1SC(CC=C)c1cccc(c1)NC(c1cc2ccccc2cn1)=O

$$$$
C22H18F3N5OS
  MOLSOFT 03092310482D

 32 35  0  0  1  0  0  0  0  0999 V2000
    0.0000   -0.0000    0.0000 S   0  0  0
   -1.3151    0.7582    0.0000 C   0  0  0
    1.2914    0.7582    0.0000 C   0  0  2
   -2.7013    0.1540    0.0000 N   0  0  0
   -1.4810    2.2629    0.0000 N   0  0  0
    2.5828    0.0237    0.0000 C   0  0  0
    1.2795    2.2747    0.0000 C   0  0  0
   -3.7201    1.2795    0.0000 N   0  0  0
   -2.9619    2.5828    0.0000 C   0  0  0
   -0.3791    3.2818    0.0000 C   0  0  0
    2.5709   -1.4691    0.0000 C   0  0  0
    3.8742    0.7819    0.0000 C   0  0  0
    3.8623   -2.2037    0.0000 C   0  0  0
    5.1656    0.0474    0.0000 C   0  0  0
    3.8505   -3.6965    0.0000 N   0  0  0
    5.1537   -1.4454    0.0000 C   0  0  0
    2.5354   -4.4310    0.0000 C   0  0  0
    1.2203   -3.6728    0.0000 O   0  0  0
    2.5235   -5.9238    0.0000 C   0  0  0
    3.8149   -6.6702    0.0000 N   0  0  0
    1.2085   -6.6702    0.0000 C   0  0  0
    3.8031   -8.1630    0.0000 C   0  0  0
    1.1966   -8.1630    0.0000 C   0  0  0
    2.4880   -8.8975    0.0000 C   0  0  0
    5.0945   -8.9094    0.0000 C   0  0  0
   -0.1185   -8.8975    0.0000 C   0  0  0
    2.4761  -10.3903    0.0000 C   0  0  0
    4.3362  -10.2008    0.0000 F   0  0  0
    6.3859   -9.6439    0.0000 F   0  0  0
    5.8409   -7.5943    0.0000 F   0  0  0
   -0.1303  -10.3903    0.0000 C   0  0  0
    1.1611  -11.1249    0.0000 C   0  0  0
  1  2  1
  3  1  1  1  0
  2  4  2
  2  5  1
  3  6  1
  3  7  1
  4  8  1
  5  9  1
  5 10  1
  6 11  2
  6 12  1
 11 13  1
 12 14  2
 13 15  1
 13 16  2
 15 17  1
 17 18  2
 17 19  1
 19 20  1
 19 21  2
 20 22  2
 21 23  1
 22 24  1
 22 25  1
 23 26  2
 24 27  2
 25 28  1
 25 29  1
 25 30  1
 26 31  1
 27 32  1
  8  9  2
 14 16  1
 23 24  1
 31 32  2
M  END
> <COMPOUND_NAMES>
Example 63 (S) (Page No: 380)

> <Reference>
WO2019148005

> <IC50_range_nM>
3001-10000

> <smiles>
C[C@@H](c1cccc(c1)NC(c1cc2ccccc2c(C(F)(F)F)n1)=O)Sc1nncn1C

$$$$
C23H21N5OS
  MOLSOFT 03092310482D

 30 34  0  0  1  0  0  0  0  0999 V2000
    0.0000   -0.0000    0.0000 S   0  0  0
   -1.3143    0.7578    0.0000 C   0  0  0
    1.2906    0.7578    0.0000 C   0  0  2
   -2.6997    0.1539    0.0000 N   0  0  0
   -1.4801    2.2616    0.0000 N   0  0  0
    2.5813    0.0237    0.0000 C   0  0  0
    1.2788    2.2734    0.0000 C   0  0  0
   -3.7180    1.2788    0.0000 N   0  0  0
   -2.9602    2.5813    0.0000 C   0  0  0
   -0.3789    3.2799    0.0000 C   0  0  0
    2.5695   -1.4683    0.0000 C   0  0  0
    3.8719    0.7815    0.0000 C   0  0  0
    0.0710    4.7245    0.0000 C   0  0  0
    1.0775    3.5996    0.0000 C   0  0  0
    3.8601   -2.2024    0.0000 C   0  0  0
    5.1626    0.0474    0.0000 C   0  0  0
    3.8483   -3.6943    0.0000 N   0  0  0
    5.1508   -1.4446    0.0000 C   0  0  0
    2.5339   -4.4285    0.0000 C   0  0  0
    1.2196   -3.6707    0.0000 O   0  0  0
    2.5221   -5.9204    0.0000 C   0  0  0
    3.8127   -6.6664    0.0000 N   0  0  0
    1.2078   -6.6664    0.0000 C   0  0  0
    3.8009   -8.1583    0.0000 C   0  0  0
    1.1959   -8.1583    0.0000 C   0  0  0
    2.4866   -8.8925    0.0000 C   0  0  0
   -0.1184   -8.8925    0.0000 C   0  0  0
    2.4747  -10.3844    0.0000 C   0  0  0
   -0.1302  -10.3844    0.0000 C   0  0  0
    1.1604  -11.1185    0.0000 C   0  0  0
  1  2  1
  3  1  1  1  0
  2  4  2
  2  5  1
  3  6  1
  3  7  1
  4  8  1
  5  9  1
  5 10  1
  6 11  2
  6 12  1
 10 13  1
 10 14  1
 11 15  1
 12 16  2
 15 17  1
 15 18  2
 17 19  1
 19 20  2
 19 21  1
 21 22  1
 21 23  2
 22 24  2
 23 25  1
 24 26  1
 25 27  2
 26 28  2
 27 29  1
 28 30  1
  8  9  2
 13 14  1
 16 18  1
 25 26  1
 29 30  2
M  END
> <COMPOUND_NAMES>
Example 99 (S) (Page No: 397)

> <Reference>
WO2019148005

> <IC50_range_nM>
301-1000

> <smiles>
C[C@@H](c1cccc(c1)NC(c1cc2ccccc2cn1)=O)Sc1nncn1C1CC1

$$$$
C20H22N6OS
  MOLSOFT 03092310482D

 28 31  0  0  1  0  0  0  0  0999 V2000
    0.0000   -0.0000    0.0000 S   0  0  0
   -1.3156    0.7586    0.0000 C   0  0  0
    1.2919    0.7586    0.0000 C   0  0  2
   -2.7024    0.1541    0.0000 N   0  0  0
   -1.4816    2.2638    0.0000 N   0  0  0
    2.5838    0.0237    0.0000 C   0  0  0
    1.2801    2.2757    0.0000 C   0  0  0
   -3.7217    1.2801    0.0000 N   0  0  0
   -2.9631    2.5838    0.0000 C   0  0  0
   -0.3793    3.2831    0.0000 C   0  0  0
    2.5720   -1.4697    0.0000 C   0  0  0
    3.8758    0.7823    0.0000 C   0  0  0
    3.8639   -2.2046    0.0000 C   0  0  0
    5.1677    0.0474    0.0000 C   0  0  0
    5.1558   -1.4460    0.0000 N   0  0  0
    3.8521   -3.6980    0.0000 N   0  0  0
    2.5364   -4.4328    0.0000 C   0  0  0
    1.2208   -3.6743    0.0000 O   0  0  0
    2.5246   -5.9263    0.0000 C   0  0  0
    1.2090   -6.6611    0.0000 N   0  0  0
    3.8165   -6.6611    0.0000 C   0  0  0
    1.1971   -8.1545    0.0000 C   0  0  0
    3.8047   -8.1545    0.0000 C   0  0  0
    2.4890   -8.8894    0.0000 C   0  0  0
    5.0966   -8.8894    0.0000 C   0  0  0
    2.4772  -10.3828    0.0000 C   0  0  0
    5.0847  -10.3828    0.0000 C   0  0  0
    3.7691  -11.1177    0.0000 C   0  0  0
  1  2  1
  3  1  1  1  0
  2  4  2
  2  5  1
  3  6  1
  3  7  1
  4  8  1
  5  9  1
  5 10  1
  6 11  2
  6 12  1
 11 13  1
 12 14  2
 13 15  2
 13 16  1
 16 17  1
 17 18  2
 17 19  1
 19 20  2
 19 21  1
 20 22  1
 21 23  2
 22 24  2
 23 25  1
 24 26  1
 25 27  1
 26 28  1
  8  9  2
 14 15  1
 23 24  1
 27 28  1
M  END
> <COMPOUND_NAMES>
Example 109 (S) (Page No: 401)

> <Reference>
WO2019148005

> <IC50_range_nM>
3001-10000

> <smiles>
C[C@@H](c1ccnc(c1)NC(c1cc2CCCCc2cn1)=O)Sc1nncn1C

$$$$
C20H17N5OS
  MOLSOFT 03092310482D

 27 30  0  0  1  0  0  0  0  0999 V2000
    0.0000   -0.0000    0.0000 S   0  0  0
   -1.3147    0.7580    0.0000 C   0  0  0
    1.2910    0.7580    0.0000 C   0  0  2
   -2.7005    0.1540    0.0000 N   0  0  0
   -1.4805    2.2623    0.0000 N   0  0  0
    2.5821    0.0237    0.0000 C   0  0  0
    1.2792    2.2741    0.0000 C   0  0  0
   -3.7191    1.2792    0.0000 N   0  0  0
   -2.9611    2.5821    0.0000 C   0  0  0
    2.5702   -1.4687    0.0000 C   0  0  0
    3.8731    0.7817    0.0000 C   0  0  0
    3.8613   -2.2030    0.0000 C   0  0  0
    5.1641    0.0474    0.0000 C   0  0  0
    3.8494   -3.6954    0.0000 N   0  0  0
    5.1523   -1.4450    0.0000 C   0  0  0
    2.5347   -4.4298    0.0000 C   0  0  0
    1.2200   -3.6717    0.0000 O   0  0  0
    2.5228   -5.9222    0.0000 C   0  0  0
    3.8139   -6.6684    0.0000 N   0  0  0
    1.2081   -6.6684    0.0000 C   0  0  0
    3.8020   -8.1608    0.0000 C   0  0  0
    1.1963   -8.1608    0.0000 C   0  0  0
    2.4873   -8.8951    0.0000 C   0  0  0
   -0.1184   -8.8951    0.0000 C   0  0  0
    2.4755  -10.3875    0.0000 C   0  0  0
   -0.1303  -10.3875    0.0000 C   0  0  0
    1.1607  -11.1218    0.0000 C   0  0  0
  1  2  1
  3  1  1  1  0
  2  4  2
  2  5  1
  3  6  1
  3  7  1
  4  8  1
  5  9  2
  6 10  2
  6 11  1
 10 12  1
 11 13  2
 12 14  1
 12 15  2
 14 16  1
 16 17  2
 16 18  1
 18 19  1
 18 20  2
 19 21  2
 20 22  1
 21 23  1
 22 24  2
 23 25  2
 24 26  1
 25 27  1
  8  9  1
 13 15  1
 22 23  1
 26 27  2
M  END
> <COMPOUND_NAMES>
Example 98 (S) (Page No: 396)

> <Reference>
WO2019148005

> <IC50_range_nM>
301-1000

> <smiles>
C[C@@H](c1cccc(c1)NC(c1cc2ccccc2cn1)=O)Sc1nc[nH]n1

$$$$
C24H24N6O3S
  MOLSOFT 03092310482D

 34 37  0  0  1  0  0  0  0  0999 V2000
    0.0000   -0.0000    0.0000 S   0  0  0
   -0.3288   -1.4562    0.0000 C   0  0  0
    1.4210    0.4697    0.0000 C   0  0  2
    0.6576   -2.5601    0.0000 N   0  0  0
   -1.7146   -2.0551    0.0000 N   0  0  0
    1.7263    1.9494    0.0000 C   0  0  0
    2.5249   -0.5167    0.0000 C   0  0  0
   -0.1057   -3.8519    0.0000 N   0  0  0
   -1.5736   -3.5348    0.0000 C   0  0  0
   -3.0298   -1.2918    0.0000 C   0  0  0
    3.1355    2.4192    0.0000 C   0  0  0
    0.5989    2.9711    0.0000 C   0  0  0
    3.4408    3.8988    0.0000 C   0  0  0
    0.9042    4.4508    0.0000 C   0  0  0
    4.8501    4.3686    0.0000 N   0  0  0
    2.3135    4.9205    0.0000 C   0  0  0
    5.1554    5.8483    0.0000 C   0  0  0
    4.0280    6.8582    0.0000 O   0  0  0
    6.5646    6.3180    0.0000 C   0  0  0
    7.6685    5.3198    0.0000 N   0  0  0
    6.8699    7.7977    0.0000 C   0  0  0
    9.0777    5.8013    0.0000 C   0  0  0
    8.2792    8.2674    0.0000 C   0  0  0
    9.3831    7.2810    0.0000 C   0  0  0
    8.5845    9.7471    0.0000 C   0  0  0
   10.8040    7.7507    0.0000 C   0  0  0
   10.0055   10.2286    0.0000 C   0  0  0
   11.1093    9.2304    0.0000 C   0  0  0
   10.3108   11.7083    0.0000 O   0  0  0
   11.7200   12.1780    0.0000 C   0  0  0
   12.0253   13.6577    0.0000 C   0  0  0
   10.8980   14.6676    0.0000 O   0  0  0
   13.4346   14.1274    0.0000 N   0  0  0
   13.7399   15.6071    0.0000 C   0  0  0
  1  2  1
  3  1  1  6  0
  2  4  2
  2  5  1
  3  6  1
  3  7  1
  4  8  1
  5  9  1
  5 10  1
  6 11  2
  6 12  1
 11 13  1
 12 14  2
 13 15  1
 13 16  2
 15 17  1
 17 18  2
 17 19  1
 19 20  1
 19 21  2
 20 22  2
 21 23  1
 22 24  1
 23 25  2
 24 26  2
 25 27  1
 26 28  1
 27 29  1
 29 30  1
 30 31  1
 31 32  2
 31 33  1
 33 34  1
  8  9  2
 14 16  1
 23 24  1
 27 28  2
M  END
> <COMPOUND_NAMES>
Example 306a (S) (Page No: 513)

> <Reference>
WO2019148005

> <IC50_range_nM>
101-300

> <smiles>
C[C@@H](c1cccc(c1)NC(c1cc2cc(ccc2cn1)OCC(NC)=O)=O)Sc1nncn1C

$$$$
C24H24N6O3S
  MOLSOFT 03092310482D

 34 37  0  0  1  0  0  0  0  0999 V2000
    0.0000   -0.0000    0.0000 S   0  0  0
   -0.3288   -1.4562    0.0000 C   0  0  0
    1.4210    0.4697    0.0000 C   0  0  1
    0.6576   -2.5601    0.0000 N   0  0  0
   -1.7146   -2.0551    0.0000 N   0  0  0
    1.7263    1.9494    0.0000 C   0  0  0
    2.5249   -0.5167    0.0000 C   0  0  0
   -0.1057   -3.8519    0.0000 N   0  0  0
   -1.5736   -3.5348    0.0000 C   0  0  0
   -3.0298   -1.2918    0.0000 C   0  0  0
    3.1355    2.4192    0.0000 C   0  0  0
    0.5989    2.9711    0.0000 C   0  0  0
    3.4408    3.8988    0.0000 C   0  0  0
    0.9042    4.4508    0.0000 C   0  0  0
    4.8501    4.3686    0.0000 N   0  0  0
    2.3135    4.9205    0.0000 C   0  0  0
    5.1554    5.8483    0.0000 C   0  0  0
    4.0280    6.8582    0.0000 O   0  0  0
    6.5646    6.3180    0.0000 C   0  0  0
    7.6685    5.3198    0.0000 N   0  0  0
    6.8699    7.7977    0.0000 C   0  0  0
    9.0777    5.8013    0.0000 C   0  0  0
    8.2792    8.2674    0.0000 C   0  0  0
    9.3831    7.2810    0.0000 C   0  0  0
    8.5845    9.7471    0.0000 C   0  0  0
   10.8040    7.7507    0.0000 C   0  0  0
   10.0055   10.2286    0.0000 C   0  0  0
   11.1093    9.2304    0.0000 C   0  0  0
   10.3108   11.7083    0.0000 O   0  0  0
   11.7200   12.1780    0.0000 C   0  0  0
   12.0253   13.6577    0.0000 C   0  0  0
   10.8980   14.6676    0.0000 O   0  0  0
   13.4346   14.1274    0.0000 N   0  0  0
   13.7399   15.6071    0.0000 C   0  0  0
  1  2  1
  3  1  1  1  0
  2  4  2
  2  5  1
  3  6  1
  3  7  1
  4  8  1
  5  9  1
  5 10  1
  6 11  2
  6 12  1
 11 13  1
 12 14  2
 13 15  1
 13 16  2
 15 17  1
 17 18  2
 17 19  1
 19 20  1
 19 21  2
 20 22  2
 21 23  1
 22 24  1
 23 25  2
 24 26  2
 25 27  1
 26 28  1
 27 29  1
 29 30  1
 30 31  1
 31 32  2
 31 33  1
 33 34  1
  8  9  2
 14 16  1
 23 24  1
 27 28  2
M  END
> <COMPOUND_NAMES>
Example 306b (R) (Page No: 513)

> <Reference>
WO2019148005

> <IC50_range_nM>
3001-10000

> <smiles>
C[C@H](c1cccc(c1)NC(c1cc2cc(ccc2cn1)OCC(NC)=O)=O)Sc1nncn1C

$$$$
C25H27N7O3S
  MOLSOFT 03092310482D

 36 39  0  0  1  0  0  0  0  0999 V2000
    0.0000   -0.0000    0.0000 S   0  0  0
   -1.3130    0.7571    0.0000 C   0  0  0
    1.2894    0.7571    0.0000 C   0  0  2
   -2.6970    0.1538    0.0000 N   0  0  0
   -1.4786    2.2594    0.0000 N   0  0  0
    2.5788    0.0237    0.0000 C   0  0  0
    1.2775    2.2712    0.0000 C   0  0  0
   -3.7144    1.2775    0.0000 N   0  0  0
   -2.9573    2.5788    0.0000 C   0  0  0
   -0.3785    3.2767    0.0000 C   0  0  0
    2.5669   -1.4668    0.0000 C   0  0  0
    3.8681    0.7807    0.0000 C   0  0  0
    3.8563   -2.2002    0.0000 C   0  0  0
    5.1575    0.0473    0.0000 C   0  0  0
    3.8445   -3.6907    0.0000 N   0  0  0
    5.1457   -1.4432    0.0000 C   0  0  0
    2.5314   -4.4241    0.0000 C   0  0  0
    1.2184   -3.6670    0.0000 O   0  0  0
    2.5196   -5.9146    0.0000 C   0  0  0
    3.8090   -6.6598    0.0000 N   0  0  0
    1.2066   -6.6598    0.0000 C   0  0  0
    3.7972   -8.1503    0.0000 C   0  0  0
    1.1947   -8.1503    0.0000 C   0  0  0
    2.4841   -8.8837    0.0000 C   0  0  0
   -0.1183   -8.8837    0.0000 C   0  0  0
    2.4723  -10.3742    0.0000 C   0  0  0
   -0.1301  -10.3742    0.0000 C   0  0  0
    1.1593  -11.1076    0.0000 C   0  0  0
   -1.4432  -11.1076    0.0000 O   0  0  0
   -2.7562  -10.3505    0.0000 C   0  0  0
   -4.0692  -11.0839    0.0000 C   0  0  0
   -4.0811  -12.5744    0.0000 O   0  0  0
   -5.3823  -10.3269    0.0000 N   0  0  0
   -6.6953  -11.0603    0.0000 C   0  0  0
   -8.0083  -10.2914    0.0000 C   0  0  0
   -9.3214  -11.0248    0.0000 N   0  0  0
  1  2  1
  3  1  1  1  0
  2  4  2
  2  5  1
  3  6  1
  3  7  1
  4  8  1
  5  9  1
  5 10  1
  6 11  2
  6 12  1
 11 13  1
 12 14  2
 13 15  1
 13 16  2
 15 17  1
 17 18  2
 17 19  1
 19 20  1
 19 21  2
 20 22  2
 21 23  1
 22 24  1
 23 25  2
 24 26  2
 25 27  1
 26 28  1
 27 29  1
 29 30  1
 30 31  1
 31 32  2
 31 33  1
 33 34  1
 34 35  1
 35 36  1
  8  9  2
 14 16  1
 23 24  1
 27 28  2
M  END
> <COMPOUND_NAMES>
Example 311 (S) (Page No: 516)

> <Reference>
WO2019148005

> <IC50_range_nM>
101-300

> <smiles>
C[C@@H](c1cccc(c1)NC(c1cc2cc(ccc2cn1)OCC(NCCN)=O)=O)Sc1nncn1C

$$$$
C23H21N5O4S
  MOLSOFT 03092310482D

 33 36  0  0  1  0  0  0  0  0999 V2000
    0.0000   -0.0000    0.0000 S   0  0  0
   -1.3138    0.7575    0.0000 C   0  0  0
    1.2901    0.7575    0.0000 C   0  0  2
   -2.6985    0.1539    0.0000 N   0  0  0
   -1.4795    2.2606    0.0000 N   0  0  0
    2.5802    0.0237    0.0000 C   0  0  0
    1.2782    2.2724    0.0000 C   0  0  0
   -3.7164    1.2782    0.0000 N   0  0  0
   -2.9589    2.5802    0.0000 C   0  0  0
   -0.3787    3.2785    0.0000 C   0  0  0
    2.5683   -1.4676    0.0000 C   0  0  0
    3.8703    0.7812    0.0000 C   0  0  0
    3.8584   -2.2014    0.0000 C   0  0  0
    5.1603    0.0473    0.0000 C   0  0  0
    3.8466   -3.6927    0.0000 N   0  0  0
    5.1485   -1.4439    0.0000 C   0  0  0
    2.5328   -4.4265    0.0000 C   0  0  0
    1.2191   -3.6690    0.0000 O   0  0  0
    2.5210   -5.9178    0.0000 C   0  0  0
    3.8111   -6.6635    0.0000 N   0  0  0
    1.2072   -6.6635    0.0000 C   0  0  0
    3.7992   -8.1548    0.0000 C   0  0  0
    1.1954   -8.1548    0.0000 C   0  0  0
    2.4855   -8.8886    0.0000 C   0  0  0
   -0.1184   -8.8886    0.0000 C   0  0  0
    2.4736  -10.3799    0.0000 C   0  0  0
   -0.1302  -10.3799    0.0000 C   0  0  0
    1.1599  -11.1137    0.0000 C   0  0  0
   -1.4439  -11.1137    0.0000 O   0  0  0
   -2.7577  -10.3562    0.0000 C   0  0  0
   -4.0715  -11.0900    0.0000 C   0  0  0
   -4.0833  -12.5813    0.0000 O   0  0  0
   -5.3852  -10.3325    0.0000 O   0  0  0
  1  2  1
  3  1  1  1  0
  2  4  2
  2  5  1
  3  6  1
  3  7  1
  4  8  1
  5  9  1
  5 10  1
  6 11  2
  6 12  1
 11 13  1
 12 14  2
 13 15  1
 13 16  2
 15 17  1
 17 18  2
 17 19  1
 19 20  1
 19 21  2
 20 22  2
 21 23  1
 22 24  1
 23 25  2
 24 26  2
 25 27  1
 26 28  1
 27 29  1
 29 30  1
 30 31  1
 31 32  2
 31 33  1
  8  9  2
 14 16  1
 23 24  1
 27 28  2
M  END
> <COMPOUND_NAMES>
Example 305 (S) (Page No: 511)

> <Reference>
WO2019148005

> <IC50_range_nM>
301-1000

> <smiles>
C[C@@H](c1cccc(c1)NC(c1cc2cc(ccc2cn1)OCC(O)=O)=O)Sc1nncn1C

$$$$
C23H21N5O4S
  MOLSOFT 03092310482D

 33 36  0  0  1  0  0  0  0  0999 V2000
    0.0000   -0.0000    0.0000 S   0  0  0
   -1.3152    0.7583    0.0000 C   0  0  0
    1.2915    0.7583    0.0000 C   0  0  2
   -2.7014    0.1540    0.0000 N   0  0  0
   -1.4810    2.2630    0.0000 N   0  0  0
    2.5829    0.0237    0.0000 C   0  0  0
    1.2796    2.2749    0.0000 C   0  0  0
   -3.7203    1.2796    0.0000 N   0  0  0
   -2.9621    2.5829    0.0000 C   0  0  0
   -0.3791    3.2820    0.0000 C   0  0  0
    2.5711   -1.4692    0.0000 C   0  0  0
    3.8744    0.7820    0.0000 C   0  0  0
    3.8625   -2.2038    0.0000 C   0  0  0
    5.1658    0.0474    0.0000 C   0  0  0
    3.8507   -3.6967    0.0000 N   0  0  0
    5.1540   -1.4455    0.0000 C   0  0  0
    2.5355   -4.4312    0.0000 C   0  0  0
    1.2204   -3.6730    0.0000 O   0  0  0
    2.5237   -5.9241    0.0000 C   0  0  0
    3.8151   -6.6706    0.0000 N   0  0  0
    1.2085   -6.6706    0.0000 C   0  0  0
    3.8033   -8.1634    0.0000 C   0  0  0
    1.1967   -8.1634    0.0000 C   0  0  0
    2.4881   -8.8980    0.0000 C   0  0  0
   -0.1185   -8.8980    0.0000 C   0  0  0
    2.4763  -10.3909    0.0000 C   0  0  0
   -0.1303  -10.3909    0.0000 C   0  0  0
    1.1611  -11.1255    0.0000 C   0  0  0
    1.1493  -12.6184    0.0000 O   0  0  0
   -0.1659  -13.3530    0.0000 C   0  0  0
   -0.1777  -14.8458    0.0000 C   0  0  0
    1.1137  -15.5804    0.0000 O   0  0  0
   -1.4929  -15.5804    0.0000 O   0  0  0
  1  2  1
  3  1  1  1  0
  2  4  2
  2  5  1
  3  6  1
  3  7  1
  4  8  1
  5  9  1
  5 10  1
  6 11  2
  6 12  1
 11 13  1
 12 14  2
 13 15  1
 13 16  2
 15 17  1
 17 18  2
 17 19  1
 19 20  1
 19 21  2
 20 22  2
 21 23  1
 22 24  1
 23 25  2
 24 26  2
 25 27  1
 26 28  1
 28 29  1
 29 30  1
 30 31  1
 31 32  2
 31 33  1
  8  9  2
 14 16  1
 23 24  1
 27 28  2
M  END
> <COMPOUND_NAMES>
Example 308 (S) (Page No: 515)

> <Reference>
WO2019148005

> <IC50_range_nM>
1001-3000

> <smiles>
C[C@@H](c1cccc(c1)NC(c1cc2ccc(cc2cn1)OCC(O)=O)=O)Sc1nncn1C

$$$$
C25H23N7O2S
  MOLSOFT 03092310482D

 35 39  0  0  1  0  0  0  0  0999 V2000
    0.0000   -0.0000    0.0000 S   0  0  0
   -1.3134    0.7573    0.0000 C   0  0  0
    1.2897    0.7573    0.0000 C   0  0  2
   -2.6978    0.1538    0.0000 N   0  0  0
   -1.4791    2.2600    0.0000 N   0  0  0
    2.5795    0.0237    0.0000 C   0  0  0
    1.2779    2.2718    0.0000 C   0  0  0
   -3.7154    1.2779    0.0000 N   0  0  0
   -2.9581    2.5795    0.0000 C   0  0  0
   -0.3786    3.2776    0.0000 C   0  0  0
    2.5677   -1.4672    0.0000 C   0  0  0
    3.8692    0.7809    0.0000 C   0  0  0
    3.8574   -2.2009    0.0000 C   0  0  0
    5.1590    0.0473    0.0000 C   0  0  0
    3.8456   -3.6918    0.0000 N   0  0  0
    5.1472   -1.4436    0.0000 C   0  0  0
    2.5322   -4.4254    0.0000 C   0  0  0
    1.2188   -3.6681    0.0000 O   0  0  0
    2.5203   -5.9163    0.0000 C   0  0  0
    3.8101   -6.6617    0.0000 N   0  0  0
    1.2069   -6.6617    0.0000 C   0  0  0
    3.7982   -8.1526    0.0000 C   0  0  0
    1.1951   -8.1526    0.0000 C   0  0  0
    2.4848   -8.8862    0.0000 C   0  0  0
   -0.1183   -8.8862    0.0000 C   0  0  0
    2.4730  -10.3771    0.0000 C   0  0  0
   -0.1302  -10.3771    0.0000 C   0  0  0
    1.1596  -11.1108    0.0000 C   0  0  0
   -1.4436  -11.1108    0.0000 O   0  0  0
   -2.7570  -10.3535    0.0000 C   0  0  0
   -4.0704  -11.0871    0.0000 C   0  0  0
   -5.4548  -10.4600    0.0000 N   0  0  0
   -4.2360  -12.5662    0.0000 C   0  0  0
   -6.4724  -11.5604    0.0000 N   0  0  0
   -5.7151  -12.8620    0.0000 C   0  0  0
  1  2  1
  3  1  1  1  0
  2  4  2
  2  5  1
  3  6  1
  3  7  1
  4  8  1
  5  9  1
  5 10  1
  6 11  2
  6 12  1
 11 13  1
 12 14  2
 13 15  1
 13 16  2
 15 17  1
 17 18  2
 17 19  1
 19 20  1
 19 21  2
 20 22  2
 21 23  1
 22 24  1
 23 25  2
 24 26  2
 25 27  1
 26 28  1
 27 29  1
 29 30  1
 30 31  1
 31 32  1
 31 33  2
 32 34  1
 33 35  1
  8  9  2
 14 16  1
 23 24  1
 27 28  2
 34 35  2
M  END
> <COMPOUND_NAMES>
Example 307 (S) (Page No: 514)

> <Reference>
WO2019148005

> <IC50_range_nM>
101-300

> <smiles>
C[C@@H](c1cccc(c1)NC(c1cc2cc(ccc2cn1)OCc1ccn[nH]1)=O)Sc1nncn1C

$$$$
C16H14F3N5OS2
  MOLSOFT 03092310482D

 27 29  0  0  1  0  0  0  0  0999 V2000
    0.0000   -0.0000    0.0000 S   0  0  0
    1.2015    0.8953    0.0000 C   0  0  0
    0.4476   -1.4136    0.0000 C   0  0  0
    2.4031    0.0236    0.0000 N   0  0  0
    1.1898    2.4031    0.0000 C   0  0  0
    1.9319   -1.4018    0.0000 C   0  0  0
   -0.1178    3.1570    0.0000 O   0  0  0
    2.4737    3.1570    0.0000 N   0  0  0
    2.8036   -2.6033    0.0000 C   0  0  0
    2.4620    4.6648    0.0000 C   0  0  0
    1.5785   -3.4750    0.0000 F   0  0  0
    3.6753   -3.8049    0.0000 F   0  0  0
    4.0051   -1.7081    0.0000 F   0  0  0
    1.1544    5.4305    0.0000 C   0  0  0
    3.7460    5.4305    0.0000 C   0  0  0
    1.1426    6.9383    0.0000 C   0  0  0
    3.7342    6.9383    0.0000 C   0  0  0
    2.4266    7.6922    0.0000 C   0  0  0
   -0.1649    7.6922    0.0000 C   0  0  1
   -1.4725    6.9618    0.0000 S   0  0  0
   -0.1767    9.2000    0.0000 C   0  0  0
   -2.7800    7.7157    0.0000 C   0  0  0
   -4.1582    7.1150    0.0000 N   0  0  0
   -2.9449    9.2117    0.0000 N   0  0  0
   -5.1713    8.2340    0.0000 N   0  0  0
   -4.4174    9.5298    0.0000 C   0  0  0
   -1.8494   10.2248    0.0000 C   0  0  0
  1  2  1
  1  3  1
  2  4  2
  2  5  1
  3  6  2
  5  7  2
  5  8  1
  6  9  1
  8 10  1
  9 11  1
  9 12  1
  9 13  1
 10 14  2
 10 15  1
 14 16  1
 15 17  2
 16 18  2
 19 16  1
 19 20  1  1  0
 19 21  1
 20 22  1
 22 23  2
 22 24  1
 23 25  1
 24 26  1
 24 27  1
  4  6  1
 17 18  1
 25 26  2
M  END
> <COMPOUND_NAMES>
Example 74 (S) (Page No: 386)

> <Reference>
WO2019148005

> <IC50_range_nM>
301-1000

> <smiles>
C[C@@H](c1cccc(c1)NC(c1nc(cs1)C(F)(F)F)=O)Sc1nncn1C

$$$$
C16H17N5OS2
  MOLSOFT 03092310482D

 24 26  0  0  1  0  0  0  0  0999 V2000
    0.0000   -0.0000    0.0000 S   0  0  0
   -1.5029    0.0117    0.0000 C   0  0  0
    0.4462    1.4324    0.0000 C   0  0  0
   -1.9725    1.4442    0.0000 N   0  0  0
   -2.3952   -1.1859    0.0000 C   0  0  0
   -0.7749    2.3247    0.0000 C   0  0  0
   -0.7867    3.8276    0.0000 C   0  0  0
   -2.0899    4.5790    0.0000 O   0  0  0
    0.4931    4.5790    0.0000 N   0  0  0
    0.4814    6.0819    0.0000 C   0  0  0
   -0.8219    6.8333    0.0000 C   0  0  0
    1.7612    6.8333    0.0000 C   0  0  0
   -0.8336    8.3362    0.0000 C   0  0  0
    1.7494    8.3362    0.0000 C   0  0  0
    0.4462    9.0994    0.0000 C   0  0  0
   -2.1369    9.0994    0.0000 C   0  0  1
   -3.4401    8.3597    0.0000 S   0  0  0
   -2.1486   10.6022    0.0000 C   0  0  0
   -4.7434    9.1228    0.0000 C   0  0  0
   -6.1171    8.5240    0.0000 N   0  0  0
   -4.9078   10.6140    0.0000 N   0  0  0
   -7.1268    9.6394    0.0000 N   0  0  0
   -6.3754   10.9310    0.0000 C   0  0  0
   -3.8159   11.6237    0.0000 C   0  0  0
  1  2  1
  1  3  1
  2  4  2
  2  5  1
  3  6  2
  6  7  1
  7  8  2
  7  9  1
  9 10  1
 10 11  2
 10 12  1
 11 13  1
 12 14  2
 13 15  2
 16 13  1
 16 17  1  1  0
 16 18  1
 17 19  1
 19 20  2
 19 21  1
 20 22  1
 21 23  1
 21 24  1
  4  6  1
 14 15  1
 22 23  2
M  END
> <COMPOUND_NAMES>
Example 41 (S) (Page No: 371)

> <Reference>
WO2019148005

> <IC50_range_nM>
1001-3000

> <smiles>
Cc1nc(cs1)C(Nc1cccc(c1)[C@H](C)Sc1nncn1C)=O

$$$$
C15H13F3N6OS2
  MOLSOFT 03092310482D

 27 29  0  0  1  0  0  0  0  0999 V2000
    0.0000   -0.0000    0.0000 S   0  0  0
   -1.5040    0.0117    0.0000 C   0  0  0
    0.4465    1.4335    0.0000 C   0  0  0
   -1.9740    1.4452    0.0000 N   0  0  0
   -2.3970   -1.1867    0.0000 C   0  0  0
   -0.7755    2.3265    0.0000 C   0  0  0
   -3.6189   -0.2937    0.0000 F   0  0  0
   -3.2899   -2.3852    0.0000 F   0  0  0
   -1.1985   -2.0562    0.0000 F   0  0  0
   -0.7872    3.8304    0.0000 C   0  0  0
   -2.0915    4.5824    0.0000 O   0  0  0
    0.4935    4.5824    0.0000 N   0  0  0
    0.4817    6.0864    0.0000 C   0  0  0
    1.7625    6.8501    0.0000 N   0  0  0
   -0.8225    6.8501    0.0000 C   0  0  0
    1.7507    8.3541    0.0000 C   0  0  0
   -0.8342    8.3541    0.0000 C   0  0  0
    0.4465    9.1061    0.0000 C   0  0  0
   -2.1385    9.1061    0.0000 C   0  0  1
   -3.4427    8.3776    0.0000 S   0  0  0
   -2.1502   10.6101    0.0000 C   0  0  0
   -4.7469    9.1296    0.0000 C   0  0  0
   -6.1216    8.5303    0.0000 N   0  0  0
   -4.9114   10.6218    0.0000 N   0  0  0
   -7.1321    9.6466    0.0000 N   0  0  0
   -6.3801   10.9390    0.0000 C   0  0  0
   -3.8187   11.6323    0.0000 C   0  0  0
  1  2  1
  1  3  1
  2  4  2
  2  5  1
  3  6  2
  5  7  1
  5  8  1
  5  9  1
  6 10  1
 10 11  2
 10 12  1
 12 13  1
 13 14  2
 13 15  1
 14 16  1
 15 17  2
 16 18  2
 19 17  1
 19 20  1  1  0
 19 21  1
 20 22  1
 22 23  2
 22 24  1
 23 25  1
 24 26  1
 24 27  1
  4  6  1
 17 18  1
 25 26  2
M  END
> <COMPOUND_NAMES>
Example 118 (S) (Page No: 404)

> <Reference>
WO2019148005

> <IC50_range_nM>
1001-3000

> <smiles>
C[C@@H](c1ccnc(c1)NC(c1csc(C(F)(F)F)n1)=O)Sc1nncn1C

$$$$
C18H16N6O2S
  MOLSOFT 03092310482D

 27 30  0  0  1  0  0  0  0  0999 V2000
    0.0000   -0.0000    0.0000 S   0  0  0
   -1.3141    0.7577    0.0000 C   0  0  0
    1.2904    0.7577    0.0000 C   0  0  2
   -2.6992    0.1539    0.0000 N   0  0  0
   -1.4798    2.2611    0.0000 N   0  0  0
    2.5808    0.0237    0.0000 C   0  0  0
    1.2786    2.2730    0.0000 C   0  0  0
   -3.7173    1.2786    0.0000 N   0  0  0
   -2.9596    2.5808    0.0000 C   0  0  0
   -0.3788    3.2792    0.0000 C   0  0  0
    2.5689   -1.4680    0.0000 C   0  0  0
    3.8712    0.7813    0.0000 C   0  0  0
    3.8593   -2.2138    0.0000 C   0  0  0
    5.1616    0.0474    0.0000 C   0  0  0
    5.1497   -1.4561    0.0000 N   0  0  0
    3.8475   -3.7054    0.0000 N   0  0  0
    2.5334   -4.4513    0.0000 C   0  0  0
    1.2194   -3.6936    0.0000 O   0  0  0
    2.5216   -5.9429    0.0000 C   0  0  0
    1.2904   -6.8189    0.0000 N   0  0  0
    3.7291   -6.8189    0.0000 C   0  0  0
    1.7403   -8.2396    0.0000 O   0  0  0
    3.2556   -8.2396    0.0000 C   0  0  0
    5.1852   -6.4993    0.0000 C   0  0  0
    4.2500   -9.3405    0.0000 C   0  0  0
    6.1797   -7.6003    0.0000 C   0  0  0
    5.7061   -9.0209    0.0000 C   0  0  0
  1  2  1
  3  1  1  1  0
  2  4  2
  2  5  1
  3  6  1
  3  7  1
  4  8  1
  5  9  1
  5 10  1
  6 11  2
  6 12  1
 11 13  1
 12 14  2
 13 15  2
 13 16  1
 16 17  1
 17 18  2
 17 19  1
 19 20  2
 19 21  1
 20 22  1
 21 23  2
 21 24  1
 23 25  1
 24 26  2
 25 27  2
  8  9  2
 14 15  1
 22 23  1
 26 27  1
M  END
> <COMPOUND_NAMES>
Example 115 (S) (Page No: 403)

> <Reference>
WO2019148005

> <IC50_range_nM>
3001-10000

> <smiles>
C[C@@H](c1ccnc(c1)NC(c1c2ccccc2on1)=O)Sc1nncn1C

$$$$
C20H17F3N6O2S
  MOLSOFT 03092310482D

 32 35  0  0  1  0  0  0  0  0999 V2000
    0.0000   -0.0000    0.0000 S   0  0  0
   -1.3159    0.7587    0.0000 C   0  0  0
    1.2922    0.7587    0.0000 C   0  0  2
   -2.7029    0.1541    0.0000 N   0  0  0
   -1.4818    2.2643    0.0000 N   0  0  0
    2.5843    0.0237    0.0000 C   0  0  0
    1.2803    2.2761    0.0000 C   0  0  0
   -3.7224    1.2803    0.0000 N   0  0  0
   -2.9637    2.5843    0.0000 C   0  0  0
   -0.3794    3.2838    0.0000 C   0  0  0
    2.5725   -1.4700    0.0000 C   0  0  0
    3.8765    0.7824    0.0000 C   0  0  0
    3.8647   -2.2050    0.0000 C   0  0  0
    5.1687    0.0474    0.0000 C   0  0  0
    3.8528   -3.6987    0.0000 N   0  0  0
    5.1568   -1.4463    0.0000 C   0  0  0
    6.5912    0.5216    0.0000 N   0  0  0
    2.5369   -4.4337    0.0000 C   0  0  0
    6.5794   -1.8968    0.0000 O   0  0  0
    7.4685   -0.6876    0.0000 C   0  0  0
    1.2210   -3.6750    0.0000 O   0  0  0
    2.5251   -5.9274    0.0000 C   0  0  0
    8.9622   -0.6757    0.0000 C   0  0  0
    3.8172   -6.6624    0.0000 N   0  0  0
    1.2092   -6.6624    0.0000 C   0  0  0
    3.8054   -8.1561    0.0000 C   0  0  0
    1.1973   -8.1561    0.0000 C   0  0  0
    2.4895   -8.8911    0.0000 C   0  0  0
    5.0975   -8.8911    0.0000 C   0  0  0
    4.3388  -10.1832    0.0000 F   0  0  0
    6.3897   -9.6261    0.0000 F   0  0  0
    5.8325   -7.5752    0.0000 F   0  0  0
  1  2  1
  3  1  1  1  0
  2  4  2
  2  5  1
  3  6  1
  3  7  1
  4  8  1
  5  9  1
  5 10  1
  6 11  2
  6 12  1
 11 13  1
 12 14  2
 13 15  1
 13 16  2
 14 17  1
 15 18  1
 16 19  1
 17 20  2
 18 21  2
 18 22  1
 20 23  1
 22 24  2
 22 25  1
 24 26  1
 25 27  2
 26 28  2
 26 29  1
 29 30  1
 29 31  1
 29 32  1
  8  9  2
 14 16  1
 19 20  1
 27 28  1
M  END
> <COMPOUND_NAMES>
Example 130a (S) (Page No: 409)

> <Reference>
WO2019148005

> <IC50_range_nM>
301-1000

> <smiles>
Cc1nc2cc(cc(c2o1)NC(c1cccc(C(F)(F)F)n1)=O)[C@H](C)Sc1nncn1C

$$$$
C19H17N5OS2
  MOLSOFT 03092310482D

 27 30  0  0  1  0  0  0  0  0999 V2000
    0.0000   -0.0000    0.0000 S   0  0  0
   -1.4332    0.4699    0.0000 C   0  0  0
    0.8693    1.2217    0.0000 C   0  0  0
   -1.4449    1.9735    0.0000 C   0  0  0
   -2.7371   -0.2584    0.0000 C   0  0  0
   -0.0235    2.4434    0.0000 N   0  0  0
   -2.7489    2.7254    0.0000 C   0  0  0
   -4.0411    0.4934    0.0000 C   0  0  0
   -2.7606    4.2290    0.0000 C   0  0  0
   -4.0528    1.9853    0.0000 C   0  0  0
   -4.0645    4.9808    0.0000 O   0  0  0
   -1.4802    4.9808    0.0000 N   0  0  0
   -1.4919    6.4845    0.0000 C   0  0  0
   -2.7958    7.2363    0.0000 C   0  0  0
   -0.2115    7.2363    0.0000 C   0  0  0
   -2.8076    8.7399    0.0000 C   0  0  0
   -0.2232    8.7399    0.0000 C   0  0  0
   -1.5271    9.4918    0.0000 C   0  0  0
   -4.1115    9.4918    0.0000 C   0  0  1
   -5.4155    8.7634    0.0000 S   0  0  0
   -4.1233   10.9954    0.0000 C   0  0  0
   -6.7194    9.5153    0.0000 C   0  0  0
   -8.0938    8.9162    0.0000 N   0  0  0
   -6.8839   11.0072    0.0000 N   0  0  0
   -9.1041   10.0321    0.0000 N   0  0  0
   -8.3523   11.3243    0.0000 C   0  0  0
   -5.7914   12.0174    0.0000 C   0  0  0
  1  2  1
  1  3  1
  2  4  2
  2  5  1
  3  6  2
  4  7  1
  5  8  2
  7  9  1
  7 10  2
  9 11  2
  9 12  1
 12 13  1
 13 14  2
 13 15  1
 14 16  1
 15 17  2
 16 18  2
 19 16  1
 19 20  1  1  0
 19 21  1
 20 22  1
 22 23  2
 22 24  1
 23 25  1
 24 26  1
 24 27  1
  4  6  1
  8 10  1
 17 18  1
 25 26  2
M  END
> <COMPOUND_NAMES>
Example 88 (S) (Page No: 391)

> <Reference>
WO2019148005

> <IC50_range_nM>
1001-3000

> <smiles>
C[C@@H](c1cccc(c1)NC(c1cccc2c1ncs2)=O)Sc1nncn1C

$$$$
C18H16N6OS2
  MOLSOFT 03092310482D

 27 30  0  0  1  0  0  0  0  0999 V2000
    0.0000   -0.0000    0.0000 S   0  0  0
   -1.2239    0.8944    0.0000 C   0  0  0
   -0.4707   -1.4122    0.0000 C   0  0  0
   -2.4478    0.0235    0.0000 N   0  0  0
   -1.2357    2.4007    0.0000 C   0  0  0
   -1.9771   -1.4004    0.0000 C   0  0  0
    0.2707   -2.6949    0.0000 C   0  0  0
   -2.5419    3.1539    0.0000 O   0  0  0
    0.0471    3.1539    0.0000 N   0  0  0
   -2.7302   -2.6832    0.0000 C   0  0  0
   -0.4825   -3.9777    0.0000 C   0  0  0
    0.0353    4.6602    0.0000 C   0  0  0
   -2.0006   -3.9659    0.0000 C   0  0  0
    1.3180    5.4134    0.0000 N   0  0  0
   -1.2710    5.4134    0.0000 C   0  0  0
    1.3063    6.9197    0.0000 C   0  0  0
   -1.2827    6.9197    0.0000 C   0  0  0
    0.0000    7.6729    0.0000 C   0  0  0
   -2.5890    7.6729    0.0000 C   0  0  1
   -3.8953    6.9433    0.0000 S   0  0  0
   -2.6008    9.1792    0.0000 C   0  0  0
   -5.2016    7.6964    0.0000 C   0  0  0
   -6.5784    7.0962    0.0000 N   0  0  0
   -5.3663    9.1910    0.0000 N   0  0  0
   -7.5905    8.2142    0.0000 N   0  0  0
   -6.8373    9.5087    0.0000 C   0  0  0
   -4.2719   10.2031    0.0000 C   0  0  0
  1  2  1
  1  3  1
  2  4  2
  2  5  1
  3  6  2
  3  7  1
  5  8  2
  5  9  1
  6 10  1
  7 11  2
  9 12  1
 10 13  2
 12 14  2
 12 15  1
 14 16  1
 15 17  2
 16 18  2
 19 17  1
 19 20  1  1  0
 19 21  1
 20 22  1
 22 23  2
 22 24  1
 23 25  1
 24 26  1
 24 27  1
  4  6  1
 11 13  1
 17 18  1
 25 26  2
M  END
> <COMPOUND_NAMES>
Example 121 (S) (Page No: 406)

> <Reference>
WO2019148005

> <IC50_range_nM>
3001-10000

> <smiles>
C[C@@H](c1ccnc(c1)NC(c1nc2ccccc2s1)=O)Sc1nncn1C

$$$$
C21H20N6O
  MOLSOFT 03092310482D

 28 31  0  0  1  0  0  0  0  0999 V2000
    0.0000   -0.0000    0.0000 O   0  0  0
    1.2873   -0.7322    0.0000 C   0  0  0
    2.5745    0.0236    0.0000 N   0  0  0
    1.2755   -2.2202    0.0000 C   0  0  0
    2.5627    1.5353    0.0000 C   0  0  0
   -0.0354   -2.9643    0.0000 N   0  0  0
    2.5627   -2.9643    0.0000 C   0  0  0
    3.8500    2.2911    0.0000 N   0  0  0
    1.2518    2.2911    0.0000 C   0  0  0
   -0.0472   -4.4523    0.0000 C   0  0  0
    2.5509   -4.4523    0.0000 C   0  0  0
    3.8382    3.8028    0.0000 C   0  0  0
    1.2400    3.8028    0.0000 C   0  0  0
    1.2400   -5.1845    0.0000 C   0  0  0
   -1.3581   -5.1845    0.0000 C   0  0  0
    2.5273    4.5586    0.0000 C   0  0  0
   -0.0709    4.5586    0.0000 C   0  0  1
    1.2282   -6.6725    0.0000 C   0  0  0
   -1.3699   -6.6725    0.0000 C   0  0  0
   -1.3817    3.8264    0.0000 C   0  0  0
   -0.0827    6.0702    0.0000 C   0  0  0
   -0.0827   -7.4047    0.0000 C   0  0  0
   -2.6926    4.5822    0.0000 C   0  0  0
   -4.0744    3.9799    0.0000 N   0  0  0
   -2.8580    6.0820    0.0000 N   0  0  0
   -5.0900    5.1018    0.0000 N   0  0  0
   -4.3342    6.4009    0.0000 C   0  0  0
   -1.7597    7.0977    0.0000 C   0  0  0
  1  2  2
  2  3  1
  2  4  1
  3  5  1
  4  6  2
  4  7  1
  5  8  2
  5  9  1
  6 10  1
  7 11  2
  8 12  1
  9 13  2
 10 14  1
 10 15  2
 12 16  2
 17 13  1
 14 18  2
 15 19  1
 17 20  1
 17 21  1  1  0
 18 22  1
 20 23  1
 23 24  2
 23 25  1
 24 26  1
 25 27  1
 25 28  1
 11 14  1
 13 16  1
 19 22  2
 26 27  2
M  END
> <COMPOUND_NAMES>
Example 303 (R) (Page No: 510)

> <Reference>
WO2019148005

> <IC50_range_nM>
301-1000

> <smiles>
C[C@H](Cc1nncn1C)c1ccnc(c1)NC(c1ccc2ccccc2n1)=O

$$$$
C21H19N5OS
  MOLSOFT 03092310482D

 28 31  0  0  1  0  0  0  0  0999 V2000
    0.0000   -0.0000    0.0000 S   0  0  0
   -1.3147    0.7580    0.0000 C   0  0  0
    1.2910    0.7580    0.0000 C   0  0  2
   -2.7005    0.1540    0.0000 N   0  0  0
   -1.4805    2.2623    0.0000 C   0  0  0
    2.5821    0.0237    0.0000 C   0  0  0
    1.2792    2.2741    0.0000 C   0  0  0
   -3.7191    1.2792    0.0000 N   0  0  0
   -2.9611    2.5821    0.0000 C   0  0  0
   -0.3790    3.2809    0.0000 C   0  0  0
    2.5702   -1.4687    0.0000 C   0  0  0
    3.8731    0.7817    0.0000 C   0  0  0
    3.8612   -2.2030    0.0000 C   0  0  0
    5.1641    0.0474    0.0000 C   0  0  0
    5.1523   -1.4450    0.0000 N   0  0  0
    3.8494   -3.6954    0.0000 N   0  0  0
    2.5347   -4.4298    0.0000 C   0  0  0
    1.2200   -3.6717    0.0000 O   0  0  0
    2.5228   -5.9221    0.0000 C   0  0  0
    1.2081   -6.6683    0.0000 N   0  0  0
    3.8139   -6.6683    0.0000 C   0  0  0
    1.1963   -8.1607    0.0000 C   0  0  0
    3.8020   -8.1607    0.0000 C   0  0  0
    2.4873   -8.8951    0.0000 C   0  0  0
   -0.1184   -8.8951    0.0000 C   0  0  0
    2.4755  -10.3874    0.0000 C   0  0  0
   -0.1303  -10.3874    0.0000 C   0  0  0
    1.1607  -11.1218    0.0000 C   0  0  0
  1  2  1
  3  1  1  1  0
  2  4  2
  2  5  1
  3  6  1
  3  7  1
  4  8  1
  5  9  2
  5 10  1
  6 11  2
  6 12  1
 11 13  1
 12 14  2
 13 15  2
 13 16  1
 16 17  1
 17 18  2
 17 19  1
 19 20  2
 19 21  1
 20 22  1
 21 23  2
 22 24  1
 22 25  2
 24 26  2
 25 27  1
 26 28  1
  8  9  1
 14 15  1
 23 24  1
 27 28  2
M  END
> <COMPOUND_NAMES>
Example 128a (S) (Page No: 408)

> <Reference>
WO2019148005

> <IC50_range_nM>
1001-3000

> <smiles>
Cc1c[nH]nc1S[C@@H](C)c1ccnc(c1)NC(c1ccc2ccccc2n1)=O

$$$$
C22H21N5OS
  MOLSOFT 03092310482D

 29 32  0  0  0  0  0  0  0  0999 V2000
    0.0000   -0.0000    0.0000 S   0  0  0
   -1.3144    0.7579    0.0000 C   0  0  0
    1.2907    0.7579    0.0000 C   0  0  3
   -2.6999    0.1539    0.0000 N   0  0  0
   -1.4802    2.2617    0.0000 N   0  0  0
    2.5815    0.0237    0.0000 C   0  0  0
    1.2789    2.2736    0.0000 C   0  0  0
   -3.7183    1.2789    0.0000 C   0  0  0
   -2.9604    2.5815    0.0000 C   0  0  0
   -0.3789    3.2801    0.0000 C   0  0  0
    2.5696   -1.4684    0.0000 C   0  0  0
    3.8722    0.7815    0.0000 C   0  0  0
   -5.2221    1.1368    0.0000 C   0  0  0
    3.8604   -2.2025    0.0000 C   0  0  0
    5.1629    0.0474    0.0000 C   0  0  0
    5.1511   -1.4447    0.0000 N   0  0  0
    3.8485   -3.6946    0.0000 N   0  0  0
    2.5341   -4.4288    0.0000 C   0  0  0
    1.2197   -3.6709    0.0000 O   0  0  0
    2.5223   -5.9208    0.0000 C   0  0  0
    1.2078   -6.6668    0.0000 N   0  0  0
    3.8130   -6.6668    0.0000 C   0  0  0
    1.1960   -8.1588    0.0000 C   0  0  0
    3.8011   -8.1588    0.0000 C   0  0  0
    2.4867   -8.8930    0.0000 C   0  0  0
   -0.1184   -8.8930    0.0000 C   0  0  0
    2.4749  -10.3851    0.0000 C   0  0  0
   -0.1303  -10.3851    0.0000 C   0  0  0
    1.1605  -11.1192    0.0000 C   0  0  0
  1  2  1
  3  1  1
  2  4  2
  2  5  1
  3  6  1
  3  7  1
  4  8  1
  5  9  1
  5 10  1
  6 11  2
  6 12  1
  8 13  1
 11 14  1
 12 15  2
 14 16  2
 14 17  1
 17 18  1
 18 19  2
 18 20  1
 20 21  2
 20 22  1
 21 23  1
 22 24  2
 23 25  1
 23 26  2
 25 27  2
 26 28  1
 27 29  1
  8  9  2
 15 16  1
 24 25  1
 28 29  2
M  END
> <COMPOUND_NAMES>
Example 129 (+/-) (Page No: 409)

> <Reference>
WO2019148005

> <IC50_range_nM>
>10000

> <smiles>
CC(c1ccnc(c1)NC(c1ccc2ccccc2n1)=O)Sc1nc(C)cn1C

$$$$
C20H25N7OS2
  MOLSOFT 03092310482D

 30 33  0  0  1  0  0  0  0  0999 V2000
    0.0000   -0.0000    0.0000 S   0  0  0
   -0.8979   -1.2051    0.0000 C   0  0  0
    1.4177   -0.4489    0.0000 C   0  0  0
   -0.0236   -2.4101    0.0000 N   0  0  0
   -2.4101   -1.1932    0.0000 N   0  0  0
    1.4059   -1.9375    0.0000 C   0  0  0
    2.7055    0.3072    0.0000 C   0  0  0
   -3.1780   -2.4810    0.0000 C   0  0  0
    2.6936   -2.6700    0.0000 C   0  0  0
    3.9932   -0.4253    0.0000 N   0  0  0
   -2.4337   -3.7687    0.0000 O   0  0  0
   -4.6903   -2.4692    0.0000 N   0  0  0
    3.9814   -1.9139    0.0000 C   0  0  0
    5.2810    0.3308    0.0000 C   0  0  0
   -5.4464   -3.7569    0.0000 C   0  0  0
    5.2691    1.8430    0.0000 C   0  0  0
   -6.9586   -3.7451    0.0000 C   0  0  0
   -4.7139   -5.0447    0.0000 C   0  0  0
   -7.7147   -5.0329    0.0000 C   0  0  0
   -5.4700   -6.3324    0.0000 C   0  0  0
   -6.9822   -6.3206    0.0000 C   0  0  0
   -9.2269   -5.0210    0.0000 C   0  0  1
   -9.9830   -3.7097    0.0000 S   0  0  0
   -9.9830   -6.3088    0.0000 C   0  0  0
  -11.4952   -3.6979    0.0000 C   0  0  0
  -12.3931   -4.9029    0.0000 N   0  0  0
  -12.3931   -2.4692    0.0000 N   0  0  0
  -13.8345   -4.4303    0.0000 N   0  0  0
  -13.8345   -2.9181    0.0000 C   0  0  0
  -11.9442   -1.0278    0.0000 C   0  0  0
  1  2  1
  1  3  1
  2  4  2
  2  5  1
  3  6  2
  3  7  1
  5  8  1
  6  9  1
  7 10  1
  8 11  2
  8 12  1
  9 13  1
 10 14  1
 12 15  1
 14 16  1
 15 17  2
 15 18  1
 17 19  1
 18 20  2
 19 21  2
 22 19  1
 22 23  1  6  0
 22 24  1
 23 25  1
 25 26  2
 25 27  1
 26 28  1
 27 29  1
 27 30  1
  4  6  1
 10 13  1
 20 21  1
 28 29  2
M  END
> <COMPOUND_NAMES>
Compound 137 (S) (Page No: 59, Table No: 1)

> <Reference>
WO 2021/021761 A1

> <IC50_range_nM>
>5000

> <smiles>
CCN1CCc2c(C1)sc(NC(Nc1cccc(c1)[C@H](C)Sc1nncn1C)=O)n2

$$$$
